Lmod has detected the following error: The following module(s) are unknown:
"epcc-job-env"

Please check the spelling or version number. Also try "module spider ..."
It is also possible your cache file is out-of-date; it may help to try:
  $ module --ignore-cache load "epcc-job-env"

Also make sure that all modulefiles written in TCL start with the string
#%Module




-------------------------------------------------------------------------
|    ___ _   _ ___                                                      |
|   / __| | | |_  )   Release 7.4.0 "Blackbird"                         |
|   \__ \ |_| |/ /                                                      |
|   |___/\___//___|   Suite (Computational Fluid Dynamics Code)         |
|                                                                       |
-------------------------------------------------------------------------
| SU2 Project Website: https://su2code.github.io                        |
|                                                                       |
| The SU2 Project is maintained by the SU2 Foundation                   |
| (http://su2foundation.org)                                            |
-------------------------------------------------------------------------
| Copyright 2012-2022, SU2 Contributors                                 |
|                                                                       |
| SU2 is free software; you can redistribute it and/or                  |
| modify it under the terms of the GNU Lesser General Public            |
| License as published by the Free Software Foundation; either          |
| version 2.1 of the License, or (at your option) any later version.    |
|                                                                       |
| SU2 is distributed in the hope that it will be useful,                |
| but WITHOUT ANY WARRANTY; without even the implied warranty of        |
| MERCHANTABILITY or FITNESS FOR A PARTICULAR PURPOSE. See the GNU      |
| Lesser General Public License for more details.                       |
|                                                                       |
| You should have received a copy of the GNU Lesser General Public      |
| License along with SU2. If not, see <http://www.gnu.org/licenses/>.   |
-------------------------------------------------------------------------

Parsing config file for zone 0

----------------- Physical Case Definition ( Zone 0 ) -------------------
Compressible RANS equations.
Turbulence model: Spalart-Allmaras-noft2
Hybrid RANS/LES: No Hybrid RANS/LES
Mach number: 0.01.
Angle of attack (AoA): 0 deg, and angle of sideslip (AoS): 0 deg.
Reynolds number: 5601. Reference length 1.
No restart solution, use the values at infinity (freestream).
Dimensional simulation.
The reference area will be computed using y(2D) or z(3D) projection.
The semi-span will be computed using the max y(3D) value.
The reference length is 1 m.
Reference origin for moment evaluation is (0, 0, 0).
Surface(s) where the force coefficients are evaluated: nozzle.

Surface(s) plotted in the output file: nozzle.
Input mesh file name: ../../template_run/jet_NLR_gr1.su2

--------------- Space Numerical Integration ( Zone 0 ) ------------------
Simple Low-Dissipation AUSM 2 solver for the flow inviscid terms.
Standard Roe without low-dissipation function.
Second order integration in space, with slope limiter.
No slope-limiting method. 
Scalar upwind solver for the turbulence model.
First order integration in space.
Average of gradients with correction (viscous flow terms).
Average of gradients with correction (viscous turbulence terms).
Gradient for upwind reconstruction: inverse-distance weighted Least-Squares.
Gradient for viscous and source terms: inverse-distance weighted Least-Squares.

--------------- Time Numerical Integration  ( Zone 0 ) ------------------
Local time stepping (steady state simulation).
Euler implicit method for the flow equations.
FGMRES is used for solving the linear system.
Using a ILU(0) preconditioning.
Convergence criteria of the linear solver: 1e-10.
Max number of linear iterations: 10.
No CFL adaptation.
Courant-Friedrichs-Lewy number:       10
Euler implicit time integration for the turbulence model.

------------------ Convergence Criteria  ( Zone 0 ) ---------------------
Maximum number of solver subiterations: 10000.
Begin convergence monitoring at iteration 0.
Residual minimum value: 1e-15.
Cauchy series min. value: 1e-05.
Number of Cauchy elements: 100.
Begin windowed time average at iteration 0.

-------------------- Output Information ( Zone 0 ) ----------------------
File writing frequency: 
+------------------------------------+
|                     File| Frequency|
+------------------------------------+
|                  RESTART|       500|
|            RESTART_ASCII|       500|
|                 PARAVIEW|       500|
|         SURFACE_PARAVIEW|       500|
+------------------------------------+
Writing the convergence history file every 1 inner iterations.
Writing the screen convergence history every 1 inner iterations.
The tabular file format is CSV (.csv).
Convergence history file name: history.
Forces breakdown file name: forces_breakdown.dat.
Surface file name: surface_flow.
Volume file name: flow.
Restart file name: restart_flow.dat.

------------- Config File Boundary Information ( Zone 0 ) ---------------
+-----------------------------------------------------------------------+
|                        Marker Type|                        Marker Name|
+-----------------------------------------------------------------------+
|                          Far-field|                          farfield1|
|                                   |                          farfield2|
|                                   |                          farfield3|
+-----------------------------------------------------------------------+
|                     Inlet boundary|                              inlet|
+-----------------------------------------------------------------------+
|                    Outlet boundary|                             outlet|
+-----------------------------------------------------------------------+
|                     Heat flux wall|                             nozzle|
+-----------------------------------------------------------------------+

-------------------- Output Preprocessing ( Zone 0 ) --------------------

WARNING: SURFACE_PRESSURE_DROP can only be computed for at least 2 surfaces (outlet, inlet, ...)

Screen output fields: TIME_ITER, INNER_ITER, RMS_DENSITY, RMS_NU_TILDE, LIFT, DRAG
History output group(s): ITER, RMS_RES, REL_RMS_RES, AERO_COEFF
Convergence field(s): REL_RMS_DENSITY
Warning: No (valid) fields chosen for time convergence monitoring. Time convergence monitoring inactive.
Volume output fields: PRIMITIVE, VORTEX_IDENTIFICATION, COORDINATES, SOLUTION

------------------- Geometry Preprocessing ( Zone 0 ) -------------------
Three dimensional problem.
1521230 grid points before partitioning.
1504960 volume elements before partitioning.
6 surface markers.
17216 boundary elements in index 0 (Marker = farfield1).
2240 boundary elements in index 1 (Marker = farfield2).
3648 boundary elements in index 2 (Marker = farfield3).
1472 boundary elements in index 3 (Marker = inlet).
2240 boundary elements in index 4 (Marker = nozzle).
5120 boundary elements in index 5 (Marker = outlet).
Executing the partitioning functions.
Building the graph adjacency structure.
Calling ParMETIS... graph partitioning complete (262320 edge cuts).
Distributing ParMETIS coloring.
Rebalancing vertices.
Rebalancing volume element connectivity.
Rebalancing markers and surface elements.
2088390 vertices including ghost points. 
1776192 interior elements including halo cells. 
1776192 hexahedra.
Establishing MPI communication patterns.
Setting point connectivity.
Renumbering points (Reverse Cuthill McKee Ordering).
Recomputing point connectivity.
Setting element connectivity.
Checking the numerical grid orientation.
All volume elements are correctly orientend.
All surface elements are correctly orientend.
Identifying edges and vertices.
Setting the control volume structure.
Volume of the computational grid: 152298.
Searching for the closest normal neighbors to the surfaces.
Storing a mapping from global to local point index.
Compute the surface curvature.
Max K: 0. Mean K: 0. Standard deviation K: 0.
Checking for periodicity.
Computing mesh quality statistics for the dual control volumes.
+--------------------------------------------------------------+
|           Mesh Quality Metric|        Minimum|        Maximum|
+--------------------------------------------------------------+
|    Orthogonality Angle (deg.)|        58.2023|        89.9982|
|     CV Face Area Aspect Ratio|        1.00819|         505.66|
|           CV Sub-Volume Ratio|        1.00188|        1.61202|
+--------------------------------------------------------------+
Finding max control volume width.
Communicating number of neighbors.
Reference area = 8.81019 m^2.
Semi-span length = 0.784008 m.
Wetted area = 27.7764 m^2.
Area projection in the x-plane = 0.0189088 m^2, y-plane = 8.81019 m^2, z-plane = 8.81019 m^2.
Max. coordinate in the x-direction = 0 m, y-direction = 0.784008 m, z-direction = 0.784008 m.
Min. coordinate in the x-direction = -6 m, y-direction = -0.784008 m, z-direction = -0.784008 m.
Computing wall distances.

-------------------- Solver Preprocessing ( Zone 0 ) --------------------
Viscous flow: Computing pressure using the ideal gas law
based on the free-stream temperature and a density computed
from the Reynolds number.
Force coefficients computed using free-stream values.

-- Models:
+------------------------------------------------------------------------------+
|          Viscosity Model|        Conductivity Model|              Fluid Model|
+------------------------------------------------------------------------------+
|               SUTHERLAND|          CONSTANT_PRANDTL|             STANDARD_AIR|
+------------------------------------------------------------------------------+
-- Fluid properties:
+------------------------------------------------------------------------------+
|                  Name|    Dim. value|    Ref. value|      Unit|Non-dim. value|
+------------------------------------------------------------------------------+
|        Ref. Viscosity|     1.716e-05|             1|   N.s/m^2|     1.716e-05|
|      Sutherland Temp.|        273.15|             1|         K|        273.15|
|     Sutherland Const.|         110.4|             1|         K|         110.4|
+------------------------------------------------------------------------------+
|        Prandtl (Lam.)|             -|             -|         -|          0.72|
|       Prandtl (Turb.)|             -|             -|         -|           0.9|
+------------------------------------------------------------------------------+
|          Gas Constant|       287.058|             1|  N.m/kg.K|       287.058|
|      Spec. Heat Ratio|             -|             -|         -|           1.4|
+------------------------------------------------------------------------------+
-- Initial and free-stream conditions:
+------------------------------------------------------------------------------+
|                  Name|    Dim. value|    Ref. value|      Unit|Non-dim. value|
+------------------------------------------------------------------------------+
|       Static Pressure|          6223|             1|        Pa|          6223|
|               Density|     0.0722618|             1|    kg/m^3|     0.0722618|
|           Temperature|           300|             1|         K|           300|
|          Total Energy|        215300|             1|   m^2/s^2|        215300|
|            Velocity-X|       3.47224|             1|       m/s|       3.47224|
|            Velocity-Y|             0|             1|       m/s|             0|
|            Velocity-Z|             0|             1|       m/s|             0|
|    Velocity Magnitude|       3.47224|             1|       m/s|       3.47224|
+------------------------------------------------------------------------------+
|             Viscosity|   1.84592e-05|             1|   N.s/m^2|   1.84592e-05|
|          Conductivity|             -|             1|   W/m^2.K|             -|
|     Turb. Kin. Energy|     0.0452116|             1|   m^2/s^2|     0.0452116|
|     Spec. Dissipation|       17.6989|             1|       1/s|       17.6989|
+------------------------------------------------------------------------------+
|           Mach Number|             -|             -|         -|          0.01|
|       Reynolds Number|             -|             -|         -|       13592.7|
+------------------------------------------------------------------------------+
Initialize Jacobian structure (Navier-Stokes). MG level: 0.
Initialize Jacobian structure (SA model).

------------------- Numerics Preprocessing ( Zone 0 ) -------------------

----------------- Integration Preprocessing ( Zone 0 ) ------------------

------------------- Iteration Preprocessing ( Zone 0 ) ------------------
Euler/Navier-Stokes/RANS fluid iteration.

------------------------------ Begin Solver -----------------------------

Simulation Run using the Single-zone Driver
+-----------------------------------------------------------------------------+
|   Time_Iter|  Inner_Iter|    rms[Rho]|     rms[nu]|          CL|          CD|
+-----------------------------------------------------------------------------+
|           0|           0|   -3.739640|   -5.920619|    0.000003|    4.093521|
|           0|           1|   -3.934353|   -5.898718|    0.000009|    4.294596|
|           0|           2|   -4.218445|   -5.913900|    0.000012|    2.888119|
|           0|           3|   -4.312136|   -5.949472|    0.000012|    1.200125|
|           0|           4|   -4.353137|   -5.970621|    0.000013|   -0.156417|
|           0|           5|   -4.377939|   -5.987323|    0.000016|   -1.192945|
|           0|           6|   -4.396311|   -6.003044|    0.000020|   -2.117633|
|           0|           7|   -4.412409|   -6.019386|    0.000024|   -3.074750|
|           0|           8|   -4.426390|   -6.035483|    0.000026|   -4.114284|
|           0|           9|   -4.437040|   -6.050635|    0.000026|   -5.237880|
|           0|          10|   -4.443648|   -6.064434|    0.000024|   -6.436071|
|           0|          11|   -4.446162|   -6.076749|    0.000021|   -7.686710|
|           0|          12|   -4.444877|   -6.087399|    0.000018|   -8.958892|
|           0|          13|   -4.440235|   -6.096274|    0.000014|  -10.224470|
|           0|          14|   -4.432784|   -6.103421|    0.000008|  -11.462502|
|           0|          15|   -4.423140|   -6.108708|    0.000000|  -12.657057|
|           0|          16|   -4.411908|   -6.112166|   -0.000010|  -13.793911|
|           0|          17|   -4.399765|   -6.114078|   -0.000023|  -14.857737|
|           0|          18|   -4.387213|   -6.115040|   -0.000037|  -15.833646|
|           0|          19|   -4.374698|   -6.116235|   -0.000053|  -16.707602|
|           0|          20|   -4.362473|   -6.120022|   -0.000068|  -17.465797|
|           0|          21|   -4.350602|   -6.124589|   -0.000083|  -18.094600|
|           0|          22|   -4.339175|   -6.125631|   -0.000095|  -18.580862|
|           0|          23|   -4.328293|   -6.122519|   -0.000104|  -18.911264|
|           0|          24|   -4.317895|   -6.115947|   -0.000109|  -19.072530|
|           0|          25|   -4.307886|   -6.106720|   -0.000109|  -19.052713|
|           0|          26|   -4.298247|   -6.095501|   -0.000104|  -18.841568|
|           0|          27|   -4.288933|   -6.083198|   -0.000093|  -18.430503|
|           0|          28|   -4.279889|   -6.069543|   -0.000077|  -17.813193|
|           0|          29|   -4.271107|   -6.054873|   -0.000055|  -16.986683|
|           0|          30|   -4.262547|   -6.038697|   -0.000030|  -15.952171|
|           0|          31|   -4.254182|   -6.022077|   -0.000003|  -14.715622|
|           0|          32|   -4.245966|   -6.004606|    0.000025|  -13.288052|
|           0|          33|   -4.237931|   -5.986303|    0.000052|  -11.685480|
|           0|          34|   -4.230007|   -5.966965|    0.000074|   -9.928593|
|           0|          35|   -4.222144|   -5.947397|    0.000091|   -8.042205|
|           0|          36|   -4.214314|   -5.927240|    0.000100|   -6.054390|
|           0|          37|   -4.206504|   -5.905959|    0.000101|   -3.995405|
|           0|          38|   -4.198655|   -5.885259|    0.000093|   -1.896325|
|           0|          39|   -4.190684|   -5.863252|    0.000075|    0.212114|
|           0|          40|   -4.182587|   -5.841514|    0.000050|    2.300802|
|           0|          41|   -4.174318|   -5.819545|    0.000016|    4.342616|
|           0|          42|   -4.165897|   -5.797002|   -0.000025|    6.314758|
|           0|          43|   -4.157285|   -5.775296|   -0.000070|    8.199035|
|           0|          44|   -4.148478|   -5.752887|   -0.000119|    9.981593|
|           0|          45|   -4.139534|   -5.731009|   -0.000169|   11.653246|
|           0|          46|   -4.130467|   -5.709026|   -0.000217|   13.209499|
|           0|          47|   -4.121359|   -5.686745|   -0.000262|   14.650208|
|           0|          48|   -4.112231|   -5.665314|   -0.000300|   15.978950|
|           0|          49|   -4.103117|   -5.643608|   -0.000329|   17.202215|
|           0|          50|   -4.094051|   -5.622899|   -0.000347|   18.328483|
|           0|          51|   -4.085039|   -5.601763|   -0.000350|   19.367203|
|           0|          52|   -4.076072|   -5.580777|   -0.000338|   20.328280|
|           0|          53|   -4.067142|   -5.559982|   -0.000312|   21.220769|
|           0|          54|   -4.058228|   -5.539335|   -0.000270|   22.052182|
|           0|          55|   -4.049298|   -5.518632|   -0.000217|   22.828168|
|           0|          56|   -4.040322|   -5.498514|   -0.000153|   23.552065|
|           0|          57|   -4.031267|   -5.478832|   -0.000083|   24.224969|
|           0|          58|   -4.022088|   -5.459154|   -0.000010|   24.845730|
|           0|          59|   -4.012771|   -5.440119|    0.000063|   25.411210|
|           0|          60|   -4.003297|   -5.420875|    0.000133|   25.916659|
|           0|          61|   -3.993658|   -5.401801|    0.000198|   26.356339|
|           0|          62|   -3.983862|   -5.382832|    0.000256|   26.724243|
|           0|          63|   -3.973927|   -5.363794|    0.000308|   27.014824|
|           0|          64|   -3.963869|   -5.344872|    0.000353|   27.223629|
|           0|          65|   -3.953707|   -5.326013|    0.000392|   27.347794|
|           0|          66|   -3.943472|   -5.307527|    0.000424|   27.386397|
|           0|          67|   -3.933186|   -5.289314|    0.000450|   27.340640|
|           0|          68|   -3.922879|   -5.271329|    0.000468|   27.213882|
|           0|          69|   -3.912592|   -5.253979|    0.000477|   27.011526|
|           0|          70|   -3.902359|   -5.236912|    0.000475|   26.740786|
|           0|          71|   -3.892221|   -5.219986|    0.000461|   26.410356|
|           0|          72|   -3.882223|   -5.203727|    0.000435|   26.030007|
|           0|          73|   -3.872409|   -5.187589|    0.000395|   25.610139|
|           0|          74|   -3.862824|   -5.171523|    0.000343|   25.161318|
|           0|          75|   -3.853518|   -5.155933|    0.000278|   24.693808|
|           0|          76|   -3.844539|   -5.140434|    0.000202|   24.217124|
|           0|          77|   -3.835935|   -5.125050|    0.000117|   23.739643|
|           0|          78|   -3.827753|   -5.110047|    0.000026|   23.268266|
|           0|          79|   -3.820035|   -5.095293|   -0.000069|   22.808191|
|           0|          80|   -3.812818|   -5.080682|   -0.000166|   22.362775|
|           0|          81|   -3.806131|   -5.066421|   -0.000261|   21.933523|
|           0|          82|   -3.799991|   -5.052492|   -0.000352|   21.520169|
|           0|          83|   -3.794404|   -5.038648|   -0.000436|   21.120861|
|           0|          84|   -3.789362|   -5.025178|   -0.000512|   20.732417|
|           0|          85|   -3.784838|   -5.012065|   -0.000577|   20.350628|
|           0|          86|   -3.780790|   -4.999007|   -0.000630|   19.970586|
|           0|          87|   -3.777162|   -4.986285|   -0.000670|   19.587011|
|           0|          88|   -3.773879|   -4.973902|   -0.000695|   19.194556|
|           0|          89|   -3.770854|   -4.961503|   -0.000705|   18.788081|
|           0|          90|   -3.767994|   -4.949334|   -0.000699|   18.362873|
|           0|          91|   -3.765199|   -4.937462|   -0.000677|   17.914828|
|           0|          92|   -3.762373|   -4.925522|   -0.000639|   17.440572|
|           0|          93|   -3.759426|   -4.913751|   -0.000586|   16.937544|
|           0|          94|   -3.756284|   -4.902226|   -0.000518|   16.404027|
|           0|          95|   -3.752887|   -4.890575|   -0.000438|   15.839145|
|           0|          96|   -3.749200|   -4.879098|   -0.000345|   15.242835|
|           0|          97|   -3.745204|   -4.867785|   -0.000243|   14.615778|
|           0|          98|   -3.740904|   -4.856315|   -0.000135|   13.959337|
|           0|          99|   -3.736321|   -4.845044|   -0.000022|   13.275459|
|           0|         100|   -3.731489|   -4.833837|    0.000092|   12.566592|
|           0|         101|   -3.726450|   -4.822484|    0.000204|   11.835592|
|           0|         102|   -3.721249|   -4.811360|    0.000312|   11.085631|
|           0|         103|   -3.715933|   -4.800183|    0.000411|   10.320116|
|           0|         104|   -3.710544|   -4.788934|    0.000498|    9.542611|
|           0|         105|   -3.705119|   -4.777887|    0.000573|    8.756765|
|           0|         106|   -3.699690|   -4.766726|    0.000632|    7.966253|
|           0|         107|   -3.694286|   -4.755579|    0.000674|    7.174716|
|           0|         108|   -3.688928|   -4.744555|    0.000698|    6.385715|
|           0|         109|   -3.683641|   -4.733422|    0.000705|    5.602680|
|           0|         110|   -3.678446|   -4.722384|    0.000696|    4.828879|
|           0|         111|   -3.673369|   -4.711385|    0.000673|    4.067378|
|           0|         112|   -3.668441|   -4.700324|    0.000637|    3.321010|
|           0|         113|   -3.663698|   -4.689381|    0.000591|    2.592352|
|           0|         114|   -3.659180|   -4.678446|    0.000539|    1.883700|
|           0|         115|   -3.654937|   -4.667494|    0.000482|    1.197058|
|           0|         116|   -3.651022|   -4.656666|    0.000423|    0.534125|
|           0|         117|   -3.647490|   -4.645830|    0.000364|   -0.103706|
|           0|         118|   -3.644400|   -4.635042|    0.000307|   -0.715347|
|           0|         119|   -3.641811|   -4.624356|    0.000251|   -1.300009|
|           0|         120|   -3.639777|   -4.613625|    0.000197|   -1.857188|
|           0|         121|   -3.638350|   -4.603004|    0.000146|   -2.386654|
|           0|         122|   -3.637575|   -4.592406|    0.000096|   -2.888432|
|           0|         123|   -3.637489|   -4.581798|    0.000048|   -3.362785|
|           0|         124|   -3.638118|   -4.571259|    0.000001|   -3.810196|
|           0|         125|   -3.639479|   -4.560659|   -0.000045|   -4.231346|
|           0|         126|   -3.641574|   -4.550079|   -0.000092|   -4.627103|
|           0|         127|   -3.644392|   -4.539433|   -0.000138|   -4.998615|
|           0|         128|   -3.647906|   -4.528719|   -0.000183|   -5.347027|
|           0|         129|   -3.652071|   -4.517932|   -0.000228|   -5.673603|
|           0|         130|   -3.656821|   -4.507003|   -0.000271|   -5.979785|
|           0|         131|   -3.662068|   -4.495947|   -0.000311|   -6.267144|
|           0|         132|   -3.667703|   -4.484683|   -0.000348|   -6.537343|
|           0|         133|   -3.673591|   -4.473337|   -0.000380|   -6.792116|
|           0|         134|   -3.679574|   -4.461847|   -0.000406|   -7.033247|
|           0|         135|   -3.685475|   -4.450259|   -0.000425|   -7.262547|
|           0|         136|   -3.691100|   -4.438590|   -0.000436|   -7.481814|
|           0|         137|   -3.696252|   -4.426918|   -0.000438|   -7.692782|
|           0|         138|   -3.700738|   -4.415265|   -0.000432|   -7.897059|
|           0|         139|   -3.704383|   -4.403557|   -0.000416|   -8.096059|
|           0|         140|   -3.707049|   -4.391885|   -0.000391|   -8.290920|
|           0|         141|   -3.708642|   -4.380255|   -0.000358|   -8.482419|
|           0|         142|   -3.709128|   -4.368686|   -0.000318|   -8.670884|
|           0|         143|   -3.708534|   -4.357212|   -0.000272|   -8.856110|
|           0|         144|   -3.706949|   -4.345808|   -0.000222|   -9.037286|
|           0|         145|   -3.704513|   -4.334580|   -0.000169|   -9.212935|
|           0|         146|   -3.701409|   -4.323442|   -0.000115|   -9.380892|
|           0|         147|   -3.697844|   -4.312462|   -0.000062|   -9.538295|
|           0|         148|   -3.694037|   -4.301652|   -0.000010|   -9.681606|
|           0|         149|   -3.690206|   -4.291015|    0.000038|   -9.806695|
|           0|         150|   -3.686558|   -4.280559|    0.000082|   -9.909007|
|           0|         151|   -3.683279|   -4.270281|    0.000121|   -9.983669|
|           0|         152|   -3.680531|   -4.260241|    0.000154|  -10.025654|
|           0|         153|   -3.678452|   -4.250358|    0.000182|  -10.029983|
|           0|         154|   -3.677153|   -4.240717|    0.000203|   -9.991937|
|           0|         155|   -3.676721|   -4.231209|    0.000218|   -9.907259|
|           0|         156|   -3.677218|   -4.221892|    0.000227|   -9.772332|
|           0|         157|   -3.678687|   -4.212656|    0.000230|   -9.584327|
|           0|         158|   -3.681149|   -4.203536|    0.000228|   -9.341350|
|           0|         159|   -3.684606|   -4.194417|    0.000221|   -9.042496|
|           0|         160|   -3.689045|   -4.185344|    0.000209|   -8.687899|
|           0|         161|   -3.694434|   -4.176209|    0.000193|   -8.278734|
|           0|         162|   -3.700723|   -4.167074|    0.000174|   -7.817194|
|           0|         163|   -3.707847|   -4.157857|    0.000152|   -7.306415|
|           0|         164|   -3.715721|   -4.148619|    0.000127|   -6.750383|
|           0|         165|   -3.724247|   -4.139314|    0.000101|   -6.153812|
|           0|         166|   -3.733306|   -4.129984|    0.000074|   -5.522034|
|           0|         167|   -3.742764|   -4.120617|    0.000045|   -4.860916|
|           0|         168|   -3.752475|   -4.111196|    0.000017|   -4.176707|
|           0|         169|   -3.762279|   -4.101758|   -0.000011|   -3.475896|
|           0|         170|   -3.772010|   -4.092211|   -0.000038|   -2.765072|
|           0|         171|   -3.781497|   -4.082659|   -0.000063|   -2.050810|
|           0|         172|   -3.790577|   -4.072918|   -0.000087|   -1.339561|
|           0|         173|   -3.799093|   -4.063173|   -0.000108|   -0.637557|
|           0|         174|   -3.806909|   -4.053173|   -0.000127|    0.049283|
|           0|         175|   -3.813912|   -4.043169|   -0.000144|    0.715431|
|           0|         176|   -3.820019|   -4.032875|   -0.000157|    1.355815|
|           0|         177|   -3.825184|   -4.022589|   -0.000168|    1.965873|
|           0|         178|   -3.829393|   -4.012004|   -0.000176|    2.541589|
|           0|         179|   -3.832670|   -4.001474|   -0.000180|    3.079523|
|           0|         180|   -3.835070|   -3.990693|   -0.000182|    3.576818|
|           0|         181|   -3.836675|   -3.980031|   -0.000180|    4.031202|
|           0|         182|   -3.837585|   -3.969088|   -0.000175|    4.440972|
|           0|         183|   -3.837917|   -3.958261|   -0.000166|    4.804977|
|           0|         184|   -3.837792|   -3.947149|   -0.000155|    5.122589|
|           0|         185|   -3.837334|   -3.936190|   -0.000140|    5.393666|
|           0|         186|   -3.836663|   -3.924947|   -0.000121|    5.618524|
|           0|         187|   -3.835893|   -3.913889|   -0.000100|    5.797897|
|           0|         188|   -3.835125|   -3.902551|   -0.000076|    5.932899|
|           0|         189|   -3.834454|   -3.891414|   -0.000050|    6.024995|
|           0|         190|   -3.833957|   -3.879999|   -0.000021|    6.075956|
|           0|         191|   -3.833705|   -3.868789|    0.000010|    6.087838|
|           0|         192|   -3.833748|   -3.857310|    0.000042|    6.062939|
|           0|         193|   -3.834131|   -3.846044|    0.000075|    6.003779|
|           0|         194|   -3.834880|   -3.834533|    0.000108|    5.913060|
|           0|         195|   -3.836013|   -3.823230|    0.000141|    5.793642|
|           0|         196|   -3.837533|   -3.811706|    0.000172|    5.648507|
|           0|         197|   -3.839434|   -3.800385|    0.000202|    5.480725|
|           0|         198|   -3.841696|   -3.788860|    0.000230|    5.293423|
|           0|         199|   -3.844287|   -3.777521|    0.000254|    5.089752|
|           0|         200|   -3.847168|   -3.766015|    0.000275|    4.872845|
|           0|         201|   -3.850283|   -3.754646|    0.000292|    4.645791|
|           0|         202|   -3.853575|   -3.743190|    0.000304|    4.411596|
|           0|         203|   -3.856966|   -3.731775|    0.000312|    4.173151|
|           0|         204|   -3.860385|   -3.720395|    0.000315|    3.933203|
|           0|         205|   -3.863738|   -3.708914|    0.000314|    3.694328|
|           0|         206|   -3.866945|   -3.697644|    0.000308|    3.458905|
|           0|         207|   -3.869908|   -3.686053|    0.000297|    3.229096|
|           0|         208|   -3.872549|   -3.674844|    0.000281|    3.006827|
|           0|         209|   -3.874775|   -3.663235|    0.000261|    2.793773|
|           0|         210|   -3.876527|   -3.651999|    0.000237|    2.591349|
|           0|         211|   -3.877737|   -3.640360|    0.000210|    2.400698|
|           0|         212|   -3.878372|   -3.629055|    0.000179|    2.222688|
|           0|         213|   -3.878407|   -3.617493|    0.000145|    2.057914|
|           0|         214|   -3.877845|   -3.605966|    0.000108|    1.906695|
|           0|         215|   -3.876710|   -3.594507|    0.000069|    1.769087|
|           0|         216|   -3.875040|   -3.582718|    0.000029|    1.644892|
|           0|         217|   -3.872909|   -3.571319|   -0.000012|    1.533671|
|           0|         218|   -3.870382|   -3.559465|   -0.000054|    1.434764|
|           0|         219|   -3.867564|   -3.547997|   -0.000096|    1.347308|
|           0|         220|   -3.864544|   -3.536172|   -0.000137|    1.270263|
|           0|         221|   -3.861438|   -3.524460|   -0.000177|    1.202431|
|           0|         222|   -3.858346|   -3.512754|   -0.000216|    1.142489|
|           0|         223|   -3.855369|   -3.500763|   -0.000252|    1.089013|
|           0|         224|   -3.852609|   -3.489131|   -0.000285|    1.040510|
|           0|         225|   -3.850144|   -3.477060|   -0.000315|    0.995449|
|           0|         226|   -3.848063|   -3.465348|   -0.000341|    0.952288|
|           0|         227|   -3.846421|   -3.453395|   -0.000362|    0.909507|
|           0|         228|   -3.845280|   -3.441392|   -0.000379|    0.865636|
|           0|         229|   -3.844673|   -3.429558|   -0.000391|    0.819279|
|           0|         230|   -3.844612|   -3.417393|   -0.000397|    0.769142|
|           0|         231|   -3.845114|   -3.405620|   -0.000398|    0.714053|
|           0|         232|   -3.846146|   -3.393506|   -0.000394|    0.652984|
|           0|         233|   -3.847695|   -3.381489|   -0.000384|    0.585062|
|           0|         234|   -3.849701|   -3.369590|   -0.000370|    0.509591|
|           0|         235|   -3.852085|   -3.357370|   -0.000350|    0.426055|
|           0|         236|   -3.854771|   -3.345587|   -0.000327|    0.334120|
|           0|         237|   -3.857630|   -3.333484|   -0.000300|    0.233636|
|           0|         238|   -3.860558|   -3.321393|   -0.000269|    0.124633|
|           0|         239|   -3.863407|   -3.309565|   -0.000235|    0.007309|
|           0|         240|   -3.866023|   -3.297325|   -0.000200|   -0.117985|
|           0|         241|   -3.868275|   -3.285473|   -0.000162|   -0.250763|
|           0|         242|   -3.869996|   -3.273482|   -0.000122|   -0.390430|
|           0|         243|   -3.871082|   -3.261276|   -0.000082|   -0.536304|
|           0|         244|   -3.871424|   -3.249489|   -0.000041|   -0.687649|
|           0|         245|   -3.870932|   -3.237331|    0.000001|   -0.843698|
|           0|         246|   -3.869588|   -3.225251|    0.000042|   -1.003680|
|           0|         247|   -3.867381|   -3.213339|    0.000083|   -1.166840|
|           0|         248|   -3.864360|   -3.201074|    0.000123|   -1.332460|
|           0|         249|   -3.860611|   -3.189094|    0.000162|   -1.499862|
|           0|         250|   -3.856226|   -3.177019|    0.000200|   -1.668414|
|           0|         251|   -3.851357|   -3.164698|    0.000235|   -1.837523|
|           0|         252|   -3.846147|   -3.152702|    0.000269|   -2.006617|
|           0|         253|   -3.840738|   -3.140461|    0.000299|   -2.175128|
|           0|         254|   -3.835289|   -3.128063|    0.000326|   -2.342462|
|           0|         255|   -3.829937|   -3.116011|    0.000349|   -2.507964|
|           0|         256|   -3.824810|   -3.103631|    0.000368|   -2.670893|
|           0|         257|   -3.820022|   -3.091220|    0.000382|   -2.830388|
|           0|         258|   -3.815660|   -3.079091|    0.000391|   -2.985443|
|           0|         259|   -3.811801|   -3.066623|    0.000394|   -3.134893|
|           0|         260|   -3.808495|   -3.054213|    0.000391|   -3.277408|
|           0|         261|   -3.805768|   -3.042064|    0.000381|   -3.411501|
|           0|         262|   -3.803634|   -3.029588|    0.000366|   -3.535544|
|           0|         263|   -3.802083|   -3.017222|    0.000344|   -3.647807|
|           0|         264|   -3.801082|   -3.005103|    0.000316|   -3.746497|
|           0|         265|   -3.800584|   -2.992694|    0.000283|   -3.829816|
|           0|         266|   -3.800524|   -2.980415|    0.000244|   -3.896018|
|           0|         267|   -3.800815|   -2.968404|    0.000201|   -3.943468|
|           0|         268|   -3.801362|   -2.956160|    0.000155|   -3.970706|
|           0|         269|   -3.802063|   -2.943983|    0.000105|   -3.976503|
|           0|         270|   -3.802794|   -2.932125|    0.000054|   -3.959906|
|           0|         271|   -3.803437|   -2.920104|    0.000002|   -3.920276|
|           0|         272|   -3.803884|   -2.908012|   -0.000049|   -3.857317|
|           0|         273|   -3.804016|   -2.896303|   -0.000099|   -3.771086|
|           0|         274|   -3.803741|   -2.884513|   -0.000146|   -3.661995|
|           0|         275|   -3.802994|   -2.872526|   -0.000188|   -3.530800|
|           0|         276|   -3.801718|   -2.860895|   -0.000226|   -3.378578|
|           0|         277|   -3.799894|   -2.849309|   -0.000258|   -3.206699|
|           0|         278|   -3.797533|   -2.837416|   -0.000283|   -3.016782|
|           0|         279|   -3.794674|   -2.825797|   -0.000300|   -2.810660|
|           0|         280|   -3.791378|   -2.814373|   -0.000309|   -2.590328|
|           0|         281|   -3.787725|   -2.802558|   -0.000310|   -2.357899|
|           0|         282|   -3.783820|   -2.790871|   -0.000302|   -2.115562|
|           0|         283|   -3.779771|   -2.779559|   -0.000286|   -1.865536|
|           0|         284|   -3.775681|   -2.767793|   -0.000262|   -1.610032|
|           0|         285|   -3.771657|   -2.756059|   -0.000230|   -1.351220|
|           0|         286|   -3.767806|   -2.744728|   -0.000193|   -1.091197|
|           0|         287|   -3.764207|   -2.733178|   -0.000150|   -0.831967|
|           0|         288|   -3.760917|   -2.721398|   -0.000104|   -0.575417|
|           0|         289|   -3.758014|   -2.709915|   -0.000056|   -0.323310|
|           0|         290|   -3.755521|   -2.698546|   -0.000007|   -0.077265|
|           0|         291|   -3.753436|   -2.686748|    0.000041|    0.161238|
|           0|         292|   -3.751787|   -2.675086|    0.000087|    0.390868|
|           0|         293|   -3.750537|   -2.663778|    0.000128|    0.610444|
|           0|         294|   -3.749637|   -2.652071|    0.000163|    0.818930|
|           0|         295|   -3.749051|   -2.640343|    0.000191|    1.015438|
|           0|         296|   -3.748710|   -2.628856|    0.000210|    1.199225|
|           0|         297|   -3.748528|   -2.617486|    0.000220|    1.369694|
|           0|         298|   -3.748407|   -2.605673|    0.000221|    1.526395|
|           0|         299|   -3.748281|   -2.594056|    0.000212|    1.669023|
|           0|         300|   -3.748060|   -2.582831|    0.000194|    1.797429|
|           0|         301|   -3.747643|   -2.571141|    0.000166|    1.911618|
|           0|         302|   -3.746969|   -2.559504|    0.000131|    2.011755|
|           0|         303|   -3.745998|   -2.548092|    0.000088|    2.098173|
|           0|         304|   -3.744679|   -2.536789|    0.000040|    2.171373|
|           0|         305|   -3.742975|   -2.525102|   -0.000011|    2.232027|
|           0|         306|   -3.740931|   -2.513577|   -0.000064|    2.280970|
|           0|         307|   -3.738563|   -2.502434|   -0.000117|    2.319199|
|           0|         308|   -3.735905|   -2.490957|   -0.000168|    2.347856|
|           0|         309|   -3.733011|   -2.479480|   -0.000216|    2.368205|
|           0|         310|   -3.729994|   -2.468063|   -0.000258|    2.381611|
|           0|         311|   -3.726910|   -2.456953|   -0.000293|    2.389505|
|           0|         312|   -3.723816|   -2.445457|   -0.000319|    2.393346|
|           0|         313|   -3.720827|   -2.434055|   -0.000337|    2.394578|
|           0|         314|   -3.718025|   -2.422819|   -0.000345|    2.394588|
|           0|         315|   -3.715446|   -2.411715|   -0.000344|    2.394662|
|           0|         316|   -3.713123|   -2.400280|   -0.000332|    2.395940|
|           0|         317|   -3.711160|   -2.388926|   -0.000311|    2.399383|
|           0|         318|   -3.709550|   -2.377851|   -0.000282|    2.405736|
|           0|         319|   -3.708275|   -2.366769|   -0.000245|    2.415511|
|           0|         320|   -3.707335|   -2.355441|   -0.000202|    2.428970|
|           0|         321|   -3.706759|   -2.344170|   -0.000154|    2.446121|
|           0|         322|   -3.706461|   -2.333285|   -0.000102|    2.466729|
|           0|         323|   -3.706360|   -2.322158|   -0.000049|    2.490326|
|           0|         324|   -3.706459|   -2.310942|    0.000005|    2.516243|
|           0|         325|   -3.706690|   -2.299803|    0.000058|    2.543636|
|           0|         326|   -3.706935|   -2.289075|    0.000108|    2.571527|
|           0|         327|   -3.707124|   -2.278041|    0.000155|    2.598846|
|           0|         328|   -3.707223|   -2.266932|    0.000197|    2.624471|
|           0|         329|   -3.707143|   -2.255878|    0.000233|    2.647276|
|           0|         330|   -3.706848|   -2.245383|    0.000262|    2.666166|
|           0|         331|   -3.706240|   -2.234411|    0.000285|    2.680118|
|           0|         332|   -3.705349|   -2.223398|    0.000300|    2.688215|
|           0|         333|   -3.704200|   -2.212538|    0.000308|    2.689671|
|           0|         334|   -3.702722|   -2.202101|    0.000309|    2.683854|
|           0|         335|   -3.700938|   -2.191181|    0.000304|    2.670302|
|           0|         336|   -3.698991|   -2.180335|    0.000293|    2.648731|
|           0|         337|   -3.696890|   -2.169575|    0.000277|    2.619040|
|           0|         338|   -3.694637|   -2.159205|    0.000256|    2.581307|
|           0|         339|   -3.692315|   -2.148383|    0.000231|    2.535781|
|           0|         340|   -3.690095|   -2.137658|    0.000204|    2.482874|
|           0|         341|   -3.687944|   -2.127056|    0.000175|    2.423140|
|           0|         342|   -3.685896|   -2.116718|    0.000145|    2.357261|
|           0|         343|   -3.684068|   -2.106102|    0.000115|    2.286026|
|           0|         344|   -3.682478|   -2.095478|    0.000085|    2.210306|
|           0|         345|   -3.681138|   -2.085010|    0.000057|    2.131033|
|           0|         346|   -3.680084|   -2.074713|    0.000030|    2.049174|
|           0|         347|   -3.679301|   -2.064330|    0.000004|    1.965704|
|           0|         348|   -3.678769|   -2.053865|   -0.000019|    1.881587|
|           0|         349|   -3.678499|   -2.043587|   -0.000039|    1.797746|
|           0|         350|   -3.678498|   -2.033423|   -0.000058|    1.715043|
|           0|         351|   -3.678669|   -2.023351|   -0.000074|    1.634254|
|           0|         352|   -3.678960|   -2.013103|   -0.000088|    1.556051|
|           0|         353|   -3.679400|   -2.003046|   -0.000100|    1.480986|
|           0|         354|   -3.679973|   -1.993071|   -0.000109|    1.409469|
|           0|         355|   -3.680572|   -1.983209|   -0.000118|    1.341765|
|           0|         356|   -3.681148|   -1.973297|   -0.000124|    1.277979|
|           0|         357|   -3.681757|   -1.963517|   -0.000129|    1.218058|
|           0|         358|   -3.682372|   -1.953936|   -0.000133|    1.161785|
|           0|         359|   -3.682993|   -1.944568|   -0.000137|    1.108792|
|           0|         360|   -3.683576|   -1.935208|   -0.000139|    1.058565|
|           0|         361|   -3.684155|   -1.925911|   -0.000142|    1.010463|
|           0|         362|   -3.684784|   -1.916817|   -0.000144|    0.963732|
|           0|         363|   -3.685477|   -1.907868|   -0.000146|    0.917530|
|           0|         364|   -3.686302|   -1.899235|   -0.000149|    0.870952|
|           0|         365|   -3.687279|   -1.890799|   -0.000152|    0.823057|
|           0|         366|   -3.688405|   -1.882516|   -0.000156|    0.772895|
|           0|         367|   -3.689802|   -1.874488|   -0.000160|    0.719536|
|           0|         368|   -3.691588|   -1.866772|   -0.000165|    0.662102|
|           0|         369|   -3.693634|   -1.859442|   -0.000171|    0.599792|
|           0|         370|   -3.696024|   -1.852255|   -0.000177|    0.531910|
|           0|         371|   -3.698894|   -1.845448|   -0.000183|    0.457887|
|           0|         372|   -3.702291|   -1.838969|   -0.000189|    0.377308|
|           0|         373|   -3.706162|   -1.832828|   -0.000194|    0.289928|
|           0|         374|   -3.710448|   -1.827038|   -0.000198|    0.195687|
|           0|         375|   -3.715155|   -1.821353|   -0.000201|    0.094724|
|           0|         376|   -3.720356|   -1.815974|   -0.000200|   -0.012615|
|           0|         377|   -3.726020|   -1.811052|   -0.000197|   -0.125775|
|           0|         378|   -3.732113|   -1.806438|   -0.000191|   -0.243988|
|           0|         379|   -3.738598|   -1.802113|   -0.000180|   -0.366285|
|           0|         380|   -3.745477|   -1.798026|   -0.000165|   -0.491498|
|           0|         381|   -3.752670|   -1.794091|   -0.000144|   -0.618280|
|           0|         382|   -3.760068|   -1.790455|   -0.000119|   -0.745122|
|           0|         383|   -3.767499|   -1.787209|   -0.000088|   -0.870374|
|           0|         384|   -3.774940|   -1.784266|   -0.000052|   -0.992279|
|           0|         385|   -3.782364|   -1.781513|   -0.000012|   -1.109001|
|           0|         386|   -3.789747|   -1.779099|    0.000033|   -1.218659|
|           0|         387|   -3.797014|   -1.776859|    0.000081|   -1.319368|
|           0|         388|   -3.804134|   -1.774810|    0.000132|   -1.409278|
|           0|         389|   -3.811026|   -1.772863|    0.000184|   -1.486615|
|           0|         390|   -3.817619|   -1.771099|    0.000236|   -1.549721|
|           0|         391|   -3.823974|   -1.769510|    0.000287|   -1.597095|
|           0|         392|   -3.829994|   -1.768034|    0.000335|   -1.627430|
|           0|         393|   -3.835680|   -1.766800|    0.000379|   -1.639649|
|           0|         394|   -3.841027|   -1.765702|    0.000417|   -1.632934|
|           0|         395|   -3.846081|   -1.764552|    0.000449|   -1.606754|
|           0|         396|   -3.850855|   -1.763341|    0.000472|   -1.560882|
|           0|         397|   -3.855338|   -1.762052|    0.000485|   -1.495413|
|           0|         398|   -3.859481|   -1.760709|    0.000489|   -1.410768|
|           0|         399|   -3.863274|   -1.759205|    0.000482|   -1.307690|
|           0|         400|   -3.866724|   -1.757463|    0.000464|   -1.187242|
|           0|         401|   -3.869904|   -1.755392|    0.000435|   -1.050787|
|           0|         402|   -3.872868|   -1.753062|    0.000396|   -0.899962|
|           0|         403|   -3.875707|   -1.750481|    0.000347|   -0.736651|
|           0|         404|   -3.878413|   -1.747558|    0.000290|   -0.562942|
|           0|         405|   -3.880912|   -1.744346|    0.000225|   -0.381088|
|           0|         406|   -3.883226|   -1.740847|    0.000155|   -0.193459|
|           0|         407|   -3.885391|   -1.736989|    0.000081|   -0.002484|
|           0|         408|   -3.887439|   -1.732865|    0.000005|    0.189395|
|           0|         409|   -3.889326|   -1.728464|   -0.000071|    0.379782|
|           0|         410|   -3.891056|   -1.723832|   -0.000145|    0.566378|
|           0|         411|   -3.892690|   -1.718981|   -0.000215|    0.747035|
|           0|         412|   -3.894242|   -1.714002|   -0.000280|    0.919799|
|           0|         413|   -3.895708|   -1.708918|   -0.000338|    1.082952|
|           0|         414|   -3.897103|   -1.703789|   -0.000387|    1.235050|
|           0|         415|   -3.898442|   -1.698607|   -0.000428|    1.374944|
|           0|         416|   -3.899728|   -1.693274|   -0.000458|    1.501804|
|           0|         417|   -3.901002|   -1.687875|   -0.000477|    1.615124|
|           0|         418|   -3.902280|   -1.682485|   -0.000486|    1.714727|
|           0|         419|   -3.903556|   -1.677152|   -0.000485|    1.800749|
|           0|         420|   -3.904810|   -1.671874|   -0.000474|    1.873627|
|           0|         421|   -3.906029|   -1.666664|   -0.000454|    1.934066|
|           0|         422|   -3.907248|   -1.661440|   -0.000426|    1.983007|
|           0|         423|   -3.908487|   -1.656234|   -0.000391|    2.021585|
|           0|         424|   -3.909774|   -1.651010|   -0.000351|    2.051083|
|           0|         425|   -3.911083|   -1.645888|   -0.000307|    2.072878|
|           0|         426|   -3.912412|   -1.640862|   -0.000259|    2.088391|
|           0|         427|   -3.913745|   -1.635943|   -0.000210|    2.099037|
|           0|         428|   -3.915033|   -1.631036|   -0.000161|    2.106169|
|           0|         429|   -3.916267|   -1.626191|   -0.000113|    2.111035|
|           0|         430|   -3.917446|   -1.621405|   -0.000067|    2.114735|
|           0|         431|   -3.918590|   -1.616690|   -0.000024|    2.118187|
|           0|         432|   -3.919714|   -1.612067|    0.000015|    2.122097|
|           0|         433|   -3.920851|   -1.607512|    0.000050|    2.126942|
|           0|         434|   -3.922028|   -1.603078|    0.000081|    2.132964|
|           0|         435|   -3.923279|   -1.598736|    0.000106|    2.140164|
|           0|         436|   -3.924584|   -1.594457|    0.000127|    2.148320|
|           0|         437|   -3.925892|   -1.590223|    0.000143|    2.157000|
|           0|         438|   -3.927138|   -1.586076|    0.000155|    2.165593|
|           0|         439|   -3.928257|   -1.582035|    0.000163|    2.173338|
|           0|         440|   -3.929268|   -1.578126|    0.000167|    2.179370|
|           0|         441|   -3.930267|   -1.574264|    0.000168|    2.182754|
|           0|         442|   -3.931297|   -1.570461|    0.000166|    2.182536|
|           0|         443|   -3.932422|   -1.566737|    0.000163|    2.177779|
|           0|         444|   -3.933648|   -1.563103|    0.000158|    2.167615|
|           0|         445|   -3.934921|   -1.559560|    0.000153|    2.151273|
|           0|         446|   -3.936223|   -1.556107|    0.000147|    2.128120|
|           0|         447|   -3.937589|   -1.552735|    0.000142|    2.097686|
|           0|         448|   -3.938972|   -1.549439|    0.000137|    2.059688|
|           0|         449|   -3.940427|   -1.546232|    0.000133|    2.014039|
|           0|         450|   -3.941899|   -1.543070|    0.000130|    1.960860|
|           0|         451|   -3.943404|   -1.539965|    0.000128|    1.900477|
|           0|         452|   -3.944902|   -1.536962|    0.000127|    1.833411|
|           0|         453|   -3.946311|   -1.534069|    0.000127|    1.760368|
|           0|         454|   -3.947627|   -1.531255|    0.000126|    1.682213|
|           0|         455|   -3.948934|   -1.528492|    0.000126|    1.599948|
|           0|         456|   -3.950287|   -1.525806|    0.000126|    1.514681|
|           0|         457|   -3.951756|   -1.523182|    0.000124|    1.427595|
|           0|         458|   -3.953325|   -1.520645|    0.000121|    1.339907|
|           0|         459|   -3.954983|   -1.518191|    0.000117|    1.252843|
|           0|         460|   -3.956680|   -1.515827|    0.000111|    1.167595|
|           0|         461|   -3.958431|   -1.513565|    0.000102|    1.085290|
|           0|         462|   -3.960198|   -1.511373|    0.000091|    1.006965|
|           0|         463|   -3.961852|   -1.509206|    0.000077|    0.933533|
|           0|         464|   -3.963418|   -1.507070|    0.000061|    0.865765|
|           0|         465|   -3.964992|   -1.504999|    0.000042|    0.804273|
|           0|         466|   -3.966706|   -1.503024|    0.000021|    0.749491|
|           0|         467|   -3.968533|   -1.501176|   -0.000001|    0.701673|
|           0|         468|   -3.970521|   -1.499449|   -0.000025|    0.660887|
|           0|         469|   -3.972550|   -1.497802|   -0.000049|    0.627019|
|           0|         470|   -3.974601|   -1.496189|   -0.000073|    0.599776|
|           0|         471|   -3.976669|   -1.494581|   -0.000096|    0.578705|
|           0|         472|   -3.978709|   -1.493008|   -0.000118|    0.563202|
|           0|         473|   -3.980714|   -1.491497|   -0.000136|    0.552536|
|           0|         474|   -3.982692|   -1.490068|   -0.000152|    0.545869|
|           0|         475|   -3.984646|   -1.488742|   -0.000164|    0.542287|
|           0|         476|   -3.986459|   -1.487540|   -0.000172|    0.540820|
|           0|         477|   -3.988189|   -1.486388|   -0.000175|    0.540478|
|           0|         478|   -3.989971|   -1.485223|   -0.000173|    0.540273|
|           0|         479|   -3.991849|   -1.484061|   -0.000167|    0.539253|
|           0|         480|   -3.993970|   -1.482916|   -0.000157|    0.536524|
|           0|         481|   -3.996258|   -1.481837|   -0.000142|    0.531279|
|           0|         482|   -3.998740|   -1.480821|   -0.000124|    0.522812|
|           0|         483|   -4.001305|   -1.479900|   -0.000103|    0.510543|
|           0|         484|   -4.003869|   -1.478976|   -0.000080|    0.494026|
|           0|         485|   -4.006446|   -1.478006|   -0.000055|    0.472959|
|           0|         486|   -4.009004|   -1.477036|   -0.000030|    0.447186|
|           0|         487|   -4.011517|   -1.476074|   -0.000006|    0.416703|
|           0|         488|   -4.013979|   -1.475129|    0.000018|    0.381643|
|           0|         489|   -4.016388|   -1.474219|    0.000039|    0.342277|
|           0|         490|   -4.018731|   -1.473331|    0.000057|    0.298992|
|           0|         491|   -4.021017|   -1.472394|    0.000071|    0.252286|
|           0|         492|   -4.023185|   -1.471406|    0.000082|    0.202741|
|           0|         493|   -4.025117|   -1.470417|    0.000088|    0.151009|
|           0|         494|   -4.026890|   -1.469434|    0.000090|    0.097794|
|           0|         495|   -4.028562|   -1.468436|    0.000088|    0.043827|
|           0|         496|   -4.030292|   -1.467446|    0.000081|   -0.010145|
|           0|         497|   -4.032086|   -1.466408|    0.000070|   -0.063384|
|           0|         498|   -4.034034|   -1.465327|    0.000056|   -0.115168|
|           0|         499|   -4.036034|   -1.464213|    0.000039|   -0.164813|
|           0|         500|   -4.038145|   -1.463095|    0.000020|   -0.211675|
+-----------------------------------------------------------------------+
|        File Writing Summary       |              Filename             |
+-----------------------------------------------------------------------+
|SU2 binary restart                 |restart_flow.dat                   |
|SU2 ASCII restart                  |restart_flow.csv                   |
|Paraview                           |flow.vtu                           |
|Paraview surface                   |surface_flow.vtu                   |
+-----------------------------------------------------------------------+
+-----------------------------------------------------------------------------+
|   Time_Iter|  Inner_Iter|    rms[Rho]|     rms[nu]|          CL|          CD|
+-----------------------------------------------------------------------------+
|           0|         501|   -4.040309|   -1.461962|    0.000001|   -0.255161|
|           0|         502|   -4.042534|   -1.460811|   -0.000019|   -0.294735|
|           0|         503|   -4.044809|   -1.459621|   -0.000038|   -0.329923|
|           0|         504|   -4.047140|   -1.458389|   -0.000054|   -0.360306|
|           0|         505|   -4.049517|   -1.457116|   -0.000068|   -0.385531|
|           0|         506|   -4.051956|   -1.455808|   -0.000079|   -0.405299|
|           0|         507|   -4.054454|   -1.454496|   -0.000085|   -0.419369|
|           0|         508|   -4.056974|   -1.453179|   -0.000087|   -0.427553|
|           0|         509|   -4.059487|   -1.451828|   -0.000084|   -0.429716|
|           0|         510|   -4.062017|   -1.450427|   -0.000077|   -0.425768|
|           0|         511|   -4.064546|   -1.448998|   -0.000065|   -0.415672|
|           0|         512|   -4.067068|   -1.447533|   -0.000050|   -0.399433|
|           0|         513|   -4.069587|   -1.446048|   -0.000030|   -0.377105|
|           0|         514|   -4.072060|   -1.444571|   -0.000009|   -0.348787|
|           0|         515|   -4.074430|   -1.443084|    0.000015|   -0.314627|
|           0|         516|   -4.076676|   -1.441577|    0.000039|   -0.274818|
|           0|         517|   -4.078791|   -1.440044|    0.000063|   -0.229605|
|           0|         518|   -4.080817|   -1.438484|    0.000086|   -0.179279|
|           0|         519|   -4.082826|   -1.436906|    0.000107|   -0.124179|
|           0|         520|   -4.084837|   -1.435317|    0.000126|   -0.064690|
|           0|         521|   -4.086917|   -1.433744|    0.000141|   -0.001243|
|           0|         522|   -4.088994|   -1.432170|    0.000152|    0.065695|
|           0|         523|   -4.091098|   -1.430592|    0.000158|    0.135619|
|           0|         524|   -4.093219|   -1.429002|    0.000161|    0.208000|
|           0|         525|   -4.095301|   -1.427400|    0.000159|    0.282283|
|           0|         526|   -4.097390|   -1.425801|    0.000153|    0.357903|
|           0|         527|   -4.099488|   -1.424192|    0.000143|    0.434289|
|           0|         528|   -4.101572|   -1.422599|    0.000129|    0.510876|
|           0|         529|   -4.103716|   -1.421016|    0.000113|    0.587110|
|           0|         530|   -4.105918|   -1.419444|    0.000095|    0.662461|
|           0|         531|   -4.108134|   -1.417857|    0.000075|    0.736424|
|           0|         532|   -4.110367|   -1.416266|    0.000054|    0.808535|
|           0|         533|   -4.112633|   -1.414686|    0.000032|    0.878369|
|           0|         534|   -4.114930|   -1.413102|    0.000011|    0.945547|
|           0|         535|   -4.117263|   -1.411541|   -0.000010|    1.009742|
|           0|         536|   -4.119612|   -1.409999|   -0.000029|    1.070675|
|           0|         537|   -4.121972|   -1.408471|   -0.000047|    1.128120|
|           0|         538|   -4.124367|   -1.406945|   -0.000063|    1.181900|
|           0|         539|   -4.126790|   -1.405431|   -0.000076|    1.231887|
|           0|         540|   -4.129234|   -1.403901|   -0.000088|    1.277995|
|           0|         541|   -4.131673|   -1.402364|   -0.000096|    1.320181|
|           0|         542|   -4.134099|   -1.400853|   -0.000103|    1.358437|
|           0|         543|   -4.136553|   -1.399367|   -0.000106|    1.392783|
|           0|         544|   -4.139048|   -1.397890|   -0.000107|    1.423266|
|           0|         545|   -4.141556|   -1.396421|   -0.000105|    1.449950|
|           0|         546|   -4.144063|   -1.394970|   -0.000101|    1.472915|
|           0|         547|   -4.146535|   -1.393530|   -0.000095|    1.492249|
|           0|         548|   -4.148949|   -1.392088|   -0.000086|    1.508045|
|           0|         549|   -4.151319|   -1.390657|   -0.000076|    1.520397|
|           0|         550|   -4.153685|   -1.389245|   -0.000064|    1.529401|
|           0|         551|   -4.156082|   -1.387842|   -0.000051|    1.535149|
|           0|         552|   -4.158505|   -1.386447|   -0.000036|    1.537731|
|           0|         553|   -4.160943|   -1.385075|   -0.000022|    1.537235|
|           0|         554|   -4.163404|   -1.383723|   -0.000007|    1.533750|
|           0|         555|   -4.165825|   -1.382375|    0.000008|    1.527367|
|           0|         556|   -4.168241|   -1.381030|    0.000022|    1.518182|
|           0|         557|   -4.170651|   -1.379704|    0.000035|    1.506302|
|           0|         558|   -4.172959|   -1.378383|    0.000047|    1.491843|
|           0|         559|   -4.175205|   -1.377073|    0.000057|    1.474940|
|           0|         560|   -4.177423|   -1.375782|    0.000065|    1.455748|
|           0|         561|   -4.179609|   -1.374513|    0.000071|    1.434443|
|           0|         562|   -4.181698|   -1.373260|    0.000075|    1.411222|
|           0|         563|   -4.183711|   -1.372018|    0.000076|    1.386312|
|           0|         564|   -4.185666|   -1.370784|    0.000076|    1.359958|
|           0|         565|   -4.187537|   -1.369558|    0.000074|    1.332429|
|           0|         566|   -4.189334|   -1.368339|    0.000070|    1.304014|
|           0|         567|   -4.191059|   -1.367141|    0.000064|    1.275013|
|           0|         568|   -4.192717|   -1.365961|    0.000057|    1.245734|
|           0|         569|   -4.194347|   -1.364801|    0.000049|    1.216488|
|           0|         570|   -4.195953|   -1.363651|    0.000041|    1.187575|
|           0|         571|   -4.197526|   -1.362517|    0.000032|    1.159282|
|           0|         572|   -4.199062|   -1.361393|    0.000023|    1.131871|
|           0|         573|   -4.200581|   -1.360273|    0.000015|    1.105572|
|           0|         574|   -4.202137|   -1.359167|    0.000008|    1.080573|
|           0|         575|   -4.203752|   -1.358074|    0.000001|    1.057018|
|           0|         576|   -4.205420|   -1.356999|   -0.000004|    1.034993|
|           0|         577|   -4.207124|   -1.355942|   -0.000009|    1.014532|
|           0|         578|   -4.208878|   -1.354900|   -0.000012|    0.995607|
|           0|         579|   -4.210695|   -1.353877|   -0.000013|    0.978130|
|           0|         580|   -4.212580|   -1.352854|   -0.000014|    0.961958|
|           0|         581|   -4.214522|   -1.351833|   -0.000013|    0.946891|
|           0|         582|   -4.216500|   -1.350824|   -0.000012|    0.932681|
|           0|         583|   -4.218491|   -1.349830|   -0.000009|    0.919042|
|           0|         584|   -4.220490|   -1.348849|   -0.000007|    0.905653|
|           0|         585|   -4.222494|   -1.347878|   -0.000003|    0.892174|
|           0|         586|   -4.224487|   -1.346924|   -0.000000|    0.878255|
|           0|         587|   -4.226459|   -1.345984|    0.000003|    0.863546|
|           0|         588|   -4.228398|   -1.345045|    0.000005|    0.847713|
|           0|         589|   -4.230264|   -1.344099|    0.000007|    0.830446|
|           0|         590|   -4.232073|   -1.343161|    0.000009|    0.811471|
|           0|         591|   -4.233814|   -1.342226|    0.000009|    0.790560|
|           0|         592|   -4.235474|   -1.341302|    0.000008|    0.767539|
|           0|         593|   -4.237018|   -1.340387|    0.000006|    0.742295|
|           0|         594|   -4.238484|   -1.339475|    0.000004|    0.714778|
|           0|         595|   -4.239894|   -1.338569|    0.000000|    0.685009|
|           0|         596|   -4.241246|   -1.337669|   -0.000004|    0.653075|
|           0|         597|   -4.242534|   -1.336764|   -0.000009|    0.619131|
|           0|         598|   -4.243771|   -1.335848|   -0.000014|    0.583394|
|           0|         599|   -4.244970|   -1.334930|   -0.000019|    0.546142|
|           0|         600|   -4.246152|   -1.334012|   -0.000024|    0.507700|
|           0|         601|   -4.247321|   -1.333095|   -0.000029|    0.468438|
|           0|         602|   -4.248518|   -1.332174|   -0.000033|    0.428756|
|           0|         603|   -4.249760|   -1.331252|   -0.000036|    0.389080|
|           0|         604|   -4.251030|   -1.330329|   -0.000038|    0.349845|
|           0|         605|   -4.252319|   -1.329401|   -0.000038|    0.311488|
|           0|         606|   -4.253639|   -1.328469|   -0.000038|    0.274439|
|           0|         607|   -4.254973|   -1.327518|   -0.000035|    0.239108|
|           0|         608|   -4.256322|   -1.326558|   -0.000032|    0.205876|
|           0|         609|   -4.257679|   -1.325588|   -0.000026|    0.175093|
|           0|         610|   -4.259037|   -1.324609|   -0.000020|    0.147065|
|           0|         611|   -4.260380|   -1.323622|   -0.000012|    0.122053|
|           0|         612|   -4.261687|   -1.322628|   -0.000004|    0.100271|
|           0|         613|   -4.262937|   -1.321626|    0.000006|    0.081878|
|           0|         614|   -4.264103|   -1.320616|    0.000015|    0.066983|
|           0|         615|   -4.265202|   -1.319593|    0.000025|    0.055647|
|           0|         616|   -4.266252|   -1.318551|    0.000034|    0.047880|
|           0|         617|   -4.267258|   -1.317497|    0.000042|    0.043648|
|           0|         618|   -4.268206|   -1.316426|    0.000050|    0.042879|
|           0|         619|   -4.269096|   -1.315335|    0.000056|    0.045464|
|           0|         620|   -4.269929|   -1.314228|    0.000060|    0.051262|
|           0|         621|   -4.270693|   -1.313114|    0.000063|    0.060109|
|           0|         622|   -4.271404|   -1.311990|    0.000064|    0.071824|
|           0|         623|   -4.272074|   -1.310855|    0.000063|    0.086208|
|           0|         624|   -4.272724|   -1.309704|    0.000060|    0.103059|
|           0|         625|   -4.273365|   -1.308535|    0.000055|    0.122169|
|           0|         626|   -4.274002|   -1.307348|    0.000048|    0.143329|
|           0|         627|   -4.274643|   -1.306143|    0.000041|    0.166335|
|           0|         628|   -4.275310|   -1.304917|    0.000032|    0.190988|
|           0|         629|   -4.276007|   -1.303673|    0.000022|    0.217096|
|           0|         630|   -4.276724|   -1.302414|    0.000013|    0.244476|
|           0|         631|   -4.277470|   -1.301145|    0.000003|    0.272955|
|           0|         632|   -4.278239|   -1.299871|   -0.000006|    0.302368|
|           0|         633|   -4.279026|   -1.298581|   -0.000014|    0.332558|
|           0|         634|   -4.279826|   -1.297271|   -0.000022|    0.363376|
|           0|         635|   -4.280645|   -1.295943|   -0.000028|    0.394678|
|           0|         636|   -4.281478|   -1.294603|   -0.000032|    0.426328|
|           0|         637|   -4.282313|   -1.293247|   -0.000035|    0.458191|
|           0|         638|   -4.283146|   -1.291874|   -0.000036|    0.490139|
|           0|         639|   -4.283962|   -1.290491|   -0.000036|    0.522044|
|           0|         640|   -4.284733|   -1.289098|   -0.000034|    0.553785|
|           0|         641|   -4.285475|   -1.287694|   -0.000031|    0.585241|
|           0|         642|   -4.286193|   -1.286281|   -0.000028|    0.616297|
|           0|         643|   -4.286897|   -1.284858|   -0.000023|    0.646844|
|           0|         644|   -4.287590|   -1.283418|   -0.000017|    0.676776|
|           0|         645|   -4.288260|   -1.281965|   -0.000012|    0.705997|
|           0|         646|   -4.288903|   -1.280505|   -0.000006|    0.734417|
|           0|         647|   -4.289516|   -1.279042|   -0.000000|    0.761957|
|           0|         648|   -4.290100|   -1.277569|    0.000005|    0.788547|
|           0|         649|   -4.290670|   -1.276097|    0.000010|    0.814128|
|           0|         650|   -4.291241|   -1.274615|    0.000014|    0.838652|
|           0|         651|   -4.291813|   -1.273127|    0.000017|    0.862082|
|           0|         652|   -4.292405|   -1.271634|    0.000020|    0.884389|
|           0|         653|   -4.293025|   -1.270139|    0.000023|    0.905556|
|           0|         654|   -4.293673|   -1.268640|    0.000024|    0.925573|
|           0|         655|   -4.294331|   -1.267141|    0.000025|    0.944435|
|           0|         656|   -4.295000|   -1.265640|    0.000026|    0.962144|
|           0|         657|   -4.295699|   -1.264144|    0.000026|    0.978704|
|           0|         658|   -4.296432|   -1.262646|    0.000026|    0.994121|
|           0|         659|   -4.297194|   -1.261152|    0.000025|    1.008402|
|           0|         660|   -4.297979|   -1.259661|    0.000024|    1.021552|
|           0|         661|   -4.298785|   -1.258173|    0.000024|    1.033575|
|           0|         662|   -4.299612|   -1.256692|    0.000023|    1.044474|
|           0|         663|   -4.300442|   -1.255214|    0.000022|    1.054248|
|           0|         664|   -4.301268|   -1.253743|    0.000021|    1.062898|
|           0|         665|   -4.302093|   -1.252281|    0.000019|    1.070423|
|           0|         666|   -4.302925|   -1.250824|    0.000018|    1.076823|
|           0|         667|   -4.303768|   -1.249375|    0.000017|    1.082102|
|           0|         668|   -4.304622|   -1.247935|    0.000015|    1.086267|
|           0|         669|   -4.305489|   -1.246505|    0.000014|    1.089334|
|           0|         670|   -4.306363|   -1.245084|    0.000012|    1.091325|
|           0|         671|   -4.307230|   -1.243676|    0.000010|    1.092273|
|           0|         672|   -4.308089|   -1.242279|    0.000008|    1.092222|
|           0|         673|   -4.308948|   -1.240891|    0.000006|    1.091228|
|           0|         674|   -4.309809|   -1.239518|    0.000003|    1.089360|
|           0|         675|   -4.310676|   -1.238156|    0.000001|    1.086701|
|           0|         676|   -4.311559|   -1.236805|   -0.000002|    1.083344|
|           0|         677|   -4.312454|   -1.235466|   -0.000005|    1.079394|
|           0|         678|   -4.313360|   -1.234140|   -0.000007|    1.074965|
|           0|         679|   -4.314269|   -1.232829|   -0.000010|    1.070175|
|           0|         680|   -4.315180|   -1.231533|   -0.000013|    1.065148|
|           0|         681|   -4.316086|   -1.230252|   -0.000015|    1.060003|
|           0|         682|   -4.316997|   -1.228982|   -0.000018|    1.054857|
|           0|         683|   -4.317923|   -1.227725|   -0.000020|    1.049816|
|           0|         684|   -4.318858|   -1.226481|   -0.000022|    1.044975|
|           0|         685|   -4.319801|   -1.225250|   -0.000024|    1.040408|
|           0|         686|   -4.320757|   -1.224033|   -0.000025|    1.036170|
|           0|         687|   -4.321717|   -1.222830|   -0.000027|    1.032289|
|           0|         688|   -4.322665|   -1.221641|   -0.000027|    1.028766|
|           0|         689|   -4.323597|   -1.220462|   -0.000028|    1.025573|
|           0|         690|   -4.324520|   -1.219297|   -0.000028|    1.022649|
|           0|         691|   -4.325432|   -1.218142|   -0.000028|    1.019903|
|           0|         692|   -4.326336|   -1.217002|   -0.000028|    1.017213|
|           0|         693|   -4.327229|   -1.215873|   -0.000027|    1.014427|
|           0|         694|   -4.328092|   -1.214755|   -0.000026|    1.011369|
|           0|         695|   -4.328932|   -1.213648|   -0.000025|    1.007841|
|           0|         696|   -4.329749|   -1.212550|   -0.000023|    1.003628|
|           0|         697|   -4.330544|   -1.211460|   -0.000021|    0.998503|
|           0|         698|   -4.331319|   -1.210382|   -0.000019|    0.992234|
|           0|         699|   -4.332074|   -1.209314|   -0.000017|    0.984591|
|           0|         700|   -4.332806|   -1.208254|   -0.000014|    0.975352|
|           0|         701|   -4.333506|   -1.207201|   -0.000012|    0.964311|
|           0|         702|   -4.334186|   -1.206156|   -0.000009|    0.951282|
|           0|         703|   -4.334851|   -1.205118|   -0.000007|    0.936108|
|           0|         704|   -4.335505|   -1.204086|   -0.000004|    0.918666|
|           0|         705|   -4.336153|   -1.203060|   -0.000001|    0.898869|
|           0|         706|   -4.336784|   -1.202038|    0.000001|    0.876675|
|           0|         707|   -4.337401|   -1.201021|    0.000004|    0.852085|
|           0|         708|   -4.338001|   -1.200009|    0.000007|    0.825148|
|           0|         709|   -4.338585|   -1.199001|    0.000009|    0.795959|
|           0|         710|   -4.339159|   -1.197996|    0.000011|    0.764660|
|           0|         711|   -4.339728|   -1.196993|    0.000013|    0.731438|
|           0|         712|   -4.340294|   -1.195989|    0.000015|    0.696523|
|           0|         713|   -4.340859|   -1.194988|    0.000017|    0.660180|
|           0|         714|   -4.341410|   -1.193987|    0.000019|    0.622708|
|           0|         715|   -4.341945|   -1.192986|    0.000020|    0.584433|
|           0|         716|   -4.342452|   -1.191984|    0.000021|    0.545701|
|           0|         717|   -4.342918|   -1.190981|    0.000022|    0.506871|
|           0|         718|   -4.343345|   -1.189976|    0.000022|    0.468311|
|           0|         719|   -4.343750|   -1.188968|    0.000023|    0.430385|
|           0|         720|   -4.344131|   -1.187956|    0.000022|    0.393452|
|           0|         721|   -4.344487|   -1.186940|    0.000022|    0.357854|
|           0|         722|   -4.344815|   -1.185919|    0.000021|    0.323916|
|           0|         723|   -4.345115|   -1.184893|    0.000020|    0.291934|
|           0|         724|   -4.345379|   -1.183861|    0.000019|    0.262176|
|           0|         725|   -4.345594|   -1.182821|    0.000018|    0.234872|
|           0|         726|   -4.345752|   -1.181774|    0.000016|    0.210218|
|           0|         727|   -4.345863|   -1.180719|    0.000014|    0.188369|
|           0|         728|   -4.345927|   -1.179658|    0.000012|    0.169440|
|           0|         729|   -4.345950|   -1.178587|    0.000009|    0.153504|
|           0|         730|   -4.345925|   -1.177505|    0.000007|    0.140596|
|           0|         731|   -4.345862|   -1.176412|    0.000004|    0.130712|
|           0|         732|   -4.345751|   -1.175309|    0.000002|    0.123813|
|           0|         733|   -4.345595|   -1.174194|   -0.000001|    0.119825|
|           0|         734|   -4.345385|   -1.173066|   -0.000003|    0.118648|
|           0|         735|   -4.345113|   -1.171925|   -0.000006|    0.120155|
|           0|         736|   -4.344791|   -1.170770|   -0.000008|    0.124198|
|           0|         737|   -4.344425|   -1.169602|   -0.000010|    0.130612|
|           0|         738|   -4.344010|   -1.168421|   -0.000012|    0.139220|
|           0|         739|   -4.343546|   -1.167223|   -0.000013|    0.149835|
|           0|         740|   -4.343036|   -1.166009|   -0.000014|    0.162269|
|           0|         741|   -4.342488|   -1.164778|   -0.000015|    0.176329|
|           0|         742|   -4.341900|   -1.163530|   -0.000015|    0.191828|
|           0|         743|   -4.341270|   -1.162267|   -0.000016|    0.208585|
|           0|         744|   -4.340589|   -1.160988|   -0.000015|    0.226423|
|           0|         745|   -4.339868|   -1.159690|   -0.000015|    0.245180|
|           0|         746|   -4.339115|   -1.158374|   -0.000014|    0.264702|
|           0|         747|   -4.338322|   -1.157039|   -0.000013|    0.284849|
|           0|         748|   -4.337494|   -1.155683|   -0.000012|    0.305493|
|           0|         749|   -4.336634|   -1.154308|   -0.000010|    0.326518|
|           0|         750|   -4.335745|   -1.152917|   -0.000009|    0.347822|
|           0|         751|   -4.334839|   -1.151507|   -0.000007|    0.369312|
|           0|         752|   -4.333920|   -1.150077|   -0.000005|    0.390908|
|           0|         753|   -4.332985|   -1.148626|   -0.000004|    0.412539|
|           0|         754|   -4.332034|   -1.147155|   -0.000002|    0.434141|
|           0|         755|   -4.331067|   -1.145662|   -0.000000|    0.455659|
|           0|         756|   -4.330080|   -1.144148|    0.000001|    0.477041|
|           0|         757|   -4.329067|   -1.142618|    0.000003|    0.498243|
|           0|         758|   -4.328035|   -1.141068|    0.000004|    0.519222|
|           0|         759|   -4.326993|   -1.139498|    0.000005|    0.539939|
|           0|         760|   -4.325948|   -1.137906|    0.000006|    0.560355|
|           0|         761|   -4.324901|   -1.136295|    0.000007|    0.580435|
|           0|         762|   -4.323856|   -1.134662|    0.000007|    0.600143|
|           0|         763|   -4.322803|   -1.133008|    0.000008|    0.619444|
|           0|         764|   -4.321736|   -1.131335|    0.000008|    0.638304|
|           0|         765|   -4.320656|   -1.129644|    0.000008|    0.656689|
|           0|         766|   -4.319552|   -1.127935|    0.000008|    0.674563|
|           0|         767|   -4.318426|   -1.126208|    0.000008|    0.691895|
|           0|         768|   -4.317281|   -1.124461|    0.000007|    0.708650|
|           0|         769|   -4.316122|   -1.122695|    0.000007|    0.724798|
|           0|         770|   -4.314950|   -1.120908|    0.000007|    0.740307|
|           0|         771|   -4.313770|   -1.119098|    0.000006|    0.755148|
|           0|         772|   -4.312581|   -1.117270|    0.000006|    0.769294|
|           0|         773|   -4.311374|   -1.115429|    0.000005|    0.782721|
|           0|         774|   -4.310143|   -1.113575|    0.000005|    0.795407|
|           0|         775|   -4.308898|   -1.111705|    0.000004|    0.807332|
|           0|         776|   -4.307638|   -1.109816|    0.000004|    0.818483|
|           0|         777|   -4.306355|   -1.107910|    0.000003|    0.828847|
|           0|         778|   -4.305054|   -1.105986|    0.000003|    0.838420|
|           0|         779|   -4.303732|   -1.104042|    0.000003|    0.847200|
|           0|         780|   -4.302392|   -1.102078|    0.000002|    0.855191|
|           0|         781|   -4.301042|   -1.100104|    0.000002|    0.862405|
|           0|         782|   -4.299684|   -1.098120|    0.000001|    0.868857|
|           0|         783|   -4.298319|   -1.096128|    0.000001|    0.874569|
|           0|         784|   -4.296946|   -1.094121|    0.000001|    0.879571|
|           0|         785|   -4.295568|   -1.092098|    0.000000|    0.883895|
|           0|         786|   -4.294185|   -1.090060|   -0.000000|    0.887581|
|           0|         787|   -4.292787|   -1.088007|   -0.000000|    0.890670|
|           0|         788|   -4.291376|   -1.085937|   -0.000001|    0.893210|
|           0|         789|   -4.289953|   -1.083851|   -0.000001|    0.895247|
|           0|         790|   -4.288519|   -1.081760|   -0.000001|    0.896832|
|           0|         791|   -4.287083|   -1.079666|   -0.000002|    0.898011|
|           0|         792|   -4.285649|   -1.077562|   -0.000002|    0.898832|
|           0|         793|   -4.284217|   -1.075448|   -0.000002|    0.899337|
|           0|         794|   -4.282794|   -1.073324|   -0.000002|    0.899563|
|           0|         795|   -4.281385|   -1.071186|   -0.000002|    0.899541|
|           0|         796|   -4.279990|   -1.069035|   -0.000002|    0.899294|
|           0|         797|   -4.278600|   -1.066870|   -0.000001|    0.898835|
|           0|         798|   -4.277211|   -1.064691|   -0.000001|    0.898167|
|           0|         799|   -4.275821|   -1.062511|   -0.000001|    0.897284|
|           0|         800|   -4.274428|   -1.060333|   -0.000000|    0.896165|
|           0|         801|   -4.273036|   -1.058158|    0.000000|    0.894780|
|           0|         802|   -4.271657|   -1.055976|    0.000001|    0.893086|
|           0|         803|   -4.270294|   -1.053786|    0.000001|    0.891029|
|           0|         804|   -4.268954|   -1.051584|    0.000002|    0.888545|
|           0|         805|   -4.267636|   -1.049373|    0.000002|    0.885560|
|           0|         806|   -4.266338|   -1.047150|    0.000002|    0.881993|
|           0|         807|   -4.265056|   -1.044918|    0.000003|    0.877758|
|           0|         808|   -4.263781|   -1.042683|    0.000003|    0.872765|
|           0|         809|   -4.262511|   -1.040460|    0.000003|    0.866922|
|           0|         810|   -4.261241|   -1.038242|    0.000003|    0.860138|
|           0|         811|   -4.259971|   -1.036031|    0.000003|    0.852328|
|           0|         812|   -4.258707|   -1.033821|    0.000003|    0.843411|
|           0|         813|   -4.257456|   -1.031607|    0.000003|    0.833317|
|           0|         814|   -4.256225|   -1.029387|    0.000003|    0.821989|
|           0|         815|   -4.255019|   -1.027160|    0.000002|    0.809382|
|           0|         816|   -4.253837|   -1.024925|    0.000001|    0.795470|
|           0|         817|   -4.252675|   -1.022683|    0.000001|    0.780244|
|           0|         818|   -4.251521|   -1.020440|   -0.000000|    0.763716|
[...]
|           0|        9772|   -7.155010|   -2.092868|    0.000000|    0.963398|
|           0|        9773|   -7.155279|   -2.093077|    0.000000|    0.963400|
|           0|        9774|   -7.155547|   -2.093285|    0.000000|    0.963403|
|           0|        9775|   -7.155816|   -2.093493|    0.000000|    0.963405|
|           0|        9776|   -7.156084|   -2.093701|    0.000000|    0.963407|
|           0|        9777|   -7.156353|   -2.093909|    0.000000|    0.963410|
|           0|        9778|   -7.156622|   -2.094117|    0.000000|    0.963412|
|           0|        9779|   -7.156891|   -2.094325|    0.000000|    0.963414|
|           0|        9780|   -7.157160|   -2.094533|    0.000000|    0.963417|
|           0|        9781|   -7.157429|   -2.094741|    0.000000|    0.963419|
|           0|        9782|   -7.157698|   -2.094949|    0.000000|    0.963421|
|           0|        9783|   -7.157968|   -2.095157|    0.000000|    0.963424|
|           0|        9784|   -7.158237|   -2.095364|    0.000000|    0.963426|
|           0|        9785|   -7.158507|   -2.095572|    0.000000|    0.963428|
|           0|        9786|   -7.158777|   -2.095780|    0.000000|    0.963431|
|           0|        9787|   -7.159047|   -2.095987|    0.000000|    0.963433|
|           0|        9788|   -7.159316|   -2.096195|    0.000000|    0.963435|
|           0|        9789|   -7.159587|   -2.096403|    0.000000|    0.963438|
|           0|        9790|   -7.159857|   -2.096610|    0.000000|    0.963440|
|           0|        9791|   -7.160127|   -2.096818|    0.000000|    0.963442|
|           0|        9792|   -7.160397|   -2.097025|    0.000000|    0.963444|
|           0|        9793|   -7.160668|   -2.097232|    0.000000|    0.963447|
|           0|        9794|   -7.160938|   -2.097440|    0.000000|    0.963449|
|           0|        9795|   -7.161209|   -2.097647|    0.000000|    0.963451|
|           0|        9796|   -7.161480|   -2.097854|    0.000000|    0.963454|
|           0|        9797|   -7.161750|   -2.098061|    0.000000|    0.963456|
|           0|        9798|   -7.162021|   -2.098269|    0.000000|    0.963458|
|           0|        9799|   -7.162292|   -2.098476|    0.000000|    0.963461|
|           0|        9800|   -7.162564|   -2.098683|    0.000000|    0.963463|
|           0|        9801|   -7.162835|   -2.098890|    0.000000|    0.963465|
|           0|        9802|   -7.163106|   -2.099097|    0.000000|    0.963468|
|           0|        9803|   -7.163378|   -2.099304|    0.000000|    0.963470|
|           0|        9804|   -7.163649|   -2.099510|    0.000000|    0.963472|
|           0|        9805|   -7.163921|   -2.099717|    0.000000|    0.963475|
|           0|        9806|   -7.164193|   -2.099924|    0.000000|    0.963477|
|           0|        9807|   -7.164464|   -2.100131|    0.000000|    0.963479|
|           0|        9808|   -7.164736|   -2.100338|    0.000000|    0.963482|
|           0|        9809|   -7.165008|   -2.100544|    0.000000|    0.963484|
|           0|        9810|   -7.165280|   -2.100751|    0.000000|    0.963486|
|           0|        9811|   -7.165553|   -2.100957|    0.000000|    0.963489|
|           0|        9812|   -7.165825|   -2.101164|    0.000000|    0.963491|
|           0|        9813|   -7.166097|   -2.101370|    0.000000|    0.963493|
|           0|        9814|   -7.166370|   -2.101577|    0.000000|    0.963496|
|           0|        9815|   -7.166643|   -2.101783|    0.000000|    0.963498|
|           0|        9816|   -7.166915|   -2.101990|    0.000000|    0.963500|
|           0|        9817|   -7.167188|   -2.102196|    0.000000|    0.963503|
|           0|        9818|   -7.167461|   -2.102402|    0.000000|    0.963505|
|           0|        9819|   -7.167734|   -2.102608|    0.000000|    0.963507|
|           0|        9820|   -7.168007|   -2.102815|    0.000000|    0.963510|
|           0|        9821|   -7.168280|   -2.103021|    0.000000|    0.963512|
|           0|        9822|   -7.168553|   -2.103227|    0.000000|    0.963514|
|           0|        9823|   -7.168827|   -2.103433|    0.000000|    0.963517|
|           0|        9824|   -7.169100|   -2.103639|    0.000000|    0.963519|
|           0|        9825|   -7.169374|   -2.103845|    0.000000|    0.963521|
|           0|        9826|   -7.169647|   -2.104051|    0.000000|    0.963524|
|           0|        9827|   -7.169921|   -2.104257|    0.000000|    0.963526|
|           0|        9828|   -7.170195|   -2.104463|    0.000000|    0.963528|
|           0|        9829|   -7.170469|   -2.104668|    0.000000|    0.963531|
|           0|        9830|   -7.170743|   -2.104874|    0.000000|    0.963533|
|           0|        9831|   -7.171017|   -2.105080|    0.000000|    0.963535|
|           0|        9832|   -7.171291|   -2.105286|    0.000000|    0.963538|
|           0|        9833|   -7.171565|   -2.105491|    0.000000|    0.963540|
|           0|        9834|   -7.171840|   -2.105697|    0.000000|    0.963542|
|           0|        9835|   -7.172114|   -2.105902|    0.000000|    0.963545|
|           0|        9836|   -7.172389|   -2.106108|    0.000000|    0.963547|
|           0|        9837|   -7.172663|   -2.106313|    0.000000|    0.963549|
|           0|        9838|   -7.172938|   -2.106519|    0.000000|    0.963552|
|           0|        9839|   -7.173213|   -2.106724|    0.000000|    0.963554|
|           0|        9840|   -7.173488|   -2.106930|    0.000000|    0.963556|
|           0|        9841|   -7.173763|   -2.107135|    0.000000|    0.963559|
|           0|        9842|   -7.174038|   -2.107340|    0.000000|    0.963561|
|           0|        9843|   -7.174313|   -2.107545|    0.000000|    0.963563|
|           0|        9844|   -7.174588|   -2.107750|    0.000000|    0.963566|
|           0|        9845|   -7.174863|   -2.107956|    0.000000|    0.963568|
|           0|        9846|   -7.175139|   -2.108161|    0.000000|    0.963570|
|           0|        9847|   -7.175414|   -2.108366|    0.000000|    0.963573|
|           0|        9848|   -7.175690|   -2.108571|    0.000000|    0.963575|
|           0|        9849|   -7.175965|   -2.108776|    0.000000|    0.963577|
|           0|        9850|   -7.176241|   -2.108981|    0.000000|    0.963580|
|           0|        9851|   -7.176517|   -2.109186|    0.000000|    0.963582|
|           0|        9852|   -7.176793|   -2.109390|    0.000000|    0.963584|
|           0|        9853|   -7.177069|   -2.109595|    0.000000|    0.963587|
|           0|        9854|   -7.177345|   -2.109800|    0.000000|    0.963589|
|           0|        9855|   -7.177621|   -2.110005|    0.000000|    0.963591|
|           0|        9856|   -7.177897|   -2.110209|    0.000000|    0.963594|
|           0|        9857|   -7.178173|   -2.110414|    0.000000|    0.963596|
|           0|        9858|   -7.178450|   -2.110619|    0.000000|    0.963598|
|           0|        9859|   -7.178726|   -2.110823|    0.000000|    0.963601|
|           0|        9860|   -7.179003|   -2.111028|    0.000000|    0.963603|
|           0|        9861|   -7.179279|   -2.111232|    0.000000|    0.963605|
|           0|        9862|   -7.179556|   -2.111437|    0.000000|    0.963608|
|           0|        9863|   -7.179833|   -2.111641|    0.000000|    0.963610|
|           0|        9864|   -7.180110|   -2.111845|    0.000000|    0.963612|
|           0|        9865|   -7.180387|   -2.112050|    0.000000|    0.963615|
|           0|        9866|   -7.180664|   -2.112254|    0.000000|    0.963617|
|           0|        9867|   -7.180941|   -2.112458|    0.000000|    0.963619|
|           0|        9868|   -7.181218|   -2.112662|    0.000000|    0.963622|
|           0|        9869|   -7.181495|   -2.112866|    0.000000|    0.963624|
|           0|        9870|   -7.181773|   -2.113071|    0.000000|    0.963626|
|           0|        9871|   -7.182050|   -2.113275|    0.000000|    0.963629|
|           0|        9872|   -7.182327|   -2.113479|    0.000000|    0.963631|
|           0|        9873|   -7.182605|   -2.113683|    0.000000|    0.963633|
|           0|        9874|   -7.182883|   -2.113887|    0.000000|    0.963636|
|           0|        9875|   -7.183160|   -2.114090|    0.000000|    0.963638|
|           0|        9876|   -7.183438|   -2.114294|    0.000000|    0.963640|
|           0|        9877|   -7.183716|   -2.114498|    0.000000|    0.963643|
|           0|        9878|   -7.183994|   -2.114702|    0.000000|    0.963645|
|           0|        9879|   -7.184272|   -2.114906|    0.000000|    0.963647|
|           0|        9880|   -7.184550|   -2.115109|    0.000000|    0.963650|
|           0|        9881|   -7.184828|   -2.115313|    0.000000|    0.963652|
|           0|        9882|   -7.185106|   -2.115517|    0.000000|    0.963654|
|           0|        9883|   -7.185385|   -2.115720|    0.000000|    0.963657|
|           0|        9884|   -7.185663|   -2.115924|    0.000000|    0.963659|
|           0|        9885|   -7.185941|   -2.116127|    0.000000|    0.963661|
|           0|        9886|   -7.186220|   -2.116331|    0.000000|    0.963664|
|           0|        9887|   -7.186498|   -2.116534|    0.000000|    0.963666|
|           0|        9888|   -7.186777|   -2.116738|    0.000000|    0.963668|
|           0|        9889|   -7.187056|   -2.116941|    0.000000|    0.963671|
|           0|        9890|   -7.187334|   -2.117144|    0.000000|    0.963673|
|           0|        9891|   -7.187613|   -2.117348|    0.000000|    0.963676|
|           0|        9892|   -7.187892|   -2.117551|    0.000000|    0.963678|
|           0|        9893|   -7.188171|   -2.117754|    0.000000|    0.963680|
|           0|        9894|   -7.188450|   -2.117957|    0.000000|    0.963683|
|           0|        9895|   -7.188729|   -2.118160|    0.000000|    0.963685|
|           0|        9896|   -7.189009|   -2.118363|    0.000000|    0.963687|
|           0|        9897|   -7.189288|   -2.118566|    0.000000|    0.963690|
|           0|        9898|   -7.189567|   -2.118769|    0.000000|    0.963692|
|           0|        9899|   -7.189847|   -2.118972|    0.000000|    0.963694|
|           0|        9900|   -7.190126|   -2.119175|    0.000000|    0.963697|
|           0|        9901|   -7.190406|   -2.119378|    0.000000|    0.963699|
|           0|        9902|   -7.190685|   -2.119581|    0.000000|    0.963701|
|           0|        9903|   -7.190965|   -2.119784|    0.000000|    0.963704|
|           0|        9904|   -7.191245|   -2.119987|    0.000000|    0.963706|
|           0|        9905|   -7.191524|   -2.120189|    0.000000|    0.963708|
|           0|        9906|   -7.191804|   -2.120392|    0.000000|    0.963711|
|           0|        9907|   -7.192084|   -2.120595|    0.000000|    0.963713|
|           0|        9908|   -7.192364|   -2.120797|    0.000000|    0.963715|
|           0|        9909|   -7.192644|   -2.121000|    0.000000|    0.963718|
|           0|        9910|   -7.192924|   -2.121202|    0.000000|    0.963720|
|           0|        9911|   -7.193204|   -2.121405|    0.000000|    0.963722|
|           0|        9912|   -7.193485|   -2.121607|    0.000000|    0.963725|
|           0|        9913|   -7.193765|   -2.121810|    0.000000|    0.963727|
|           0|        9914|   -7.194045|   -2.122012|    0.000000|    0.963729|
|           0|        9915|   -7.194326|   -2.122215|    0.000000|    0.963732|
|           0|        9916|   -7.194606|   -2.122417|    0.000000|    0.963734|
|           0|        9917|   -7.194887|   -2.122619|    0.000000|    0.963736|
|           0|        9918|   -7.195167|   -2.122821|    0.000000|    0.963739|
|           0|        9919|   -7.195448|   -2.123024|    0.000000|    0.963741|
|           0|        9920|   -7.195729|   -2.123226|    0.000000|    0.963743|
|           0|        9921|   -7.196009|   -2.123428|    0.000000|    0.963746|
|           0|        9922|   -7.196290|   -2.123630|    0.000000|    0.963748|
|           0|        9923|   -7.196571|   -2.123832|    0.000000|    0.963751|
|           0|        9924|   -7.196852|   -2.124034|    0.000000|    0.963753|
|           0|        9925|   -7.197133|   -2.124236|    0.000000|    0.963755|
|           0|        9926|   -7.197414|   -2.124438|    0.000000|    0.963758|
|           0|        9927|   -7.197695|   -2.124640|    0.000000|    0.963760|
|           0|        9928|   -7.197976|   -2.124842|    0.000000|    0.963762|
|           0|        9929|   -7.198257|   -2.125044|    0.000000|    0.963765|
|           0|        9930|   -7.198539|   -2.125245|    0.000000|    0.963767|
|           0|        9931|   -7.198820|   -2.125447|    0.000000|    0.963769|
|           0|        9932|   -7.199101|   -2.125649|    0.000000|    0.963772|
|           0|        9933|   -7.199383|   -2.125850|    0.000000|    0.963774|
|           0|        9934|   -7.199664|   -2.126052|    0.000000|    0.963776|
|           0|        9935|   -7.199946|   -2.126254|    0.000000|    0.963779|
|           0|        9936|   -7.200228|   -2.126455|    0.000000|    0.963781|
|           0|        9937|   -7.200509|   -2.126657|    0.000000|    0.963783|
|           0|        9938|   -7.200791|   -2.126858|    0.000000|    0.963786|
|           0|        9939|   -7.201073|   -2.127060|    0.000000|    0.963788|
|           0|        9940|   -7.201354|   -2.127261|    0.000000|    0.963790|
|           0|        9941|   -7.201636|   -2.127463|    0.000000|    0.963793|
|           0|        9942|   -7.201918|   -2.127664|    0.000000|    0.963795|
|           0|        9943|   -7.202200|   -2.127865|    0.000000|    0.963797|
|           0|        9944|   -7.202482|   -2.128067|    0.000000|    0.963800|
|           0|        9945|   -7.202764|   -2.128268|    0.000000|    0.963802|
|           0|        9946|   -7.203046|   -2.128469|    0.000000|    0.963805|
|           0|        9947|   -7.203329|   -2.128670|    0.000000|    0.963807|
|           0|        9948|   -7.203611|   -2.128871|    0.000000|    0.963809|
|           0|        9949|   -7.203893|   -2.129072|    0.000000|    0.963812|
|           0|        9950|   -7.204175|   -2.129273|    0.000000|    0.963814|
|           0|        9951|   -7.204458|   -2.129474|    0.000000|    0.963816|
|           0|        9952|   -7.204740|   -2.129675|    0.000000|    0.963819|
|           0|        9953|   -7.205023|   -2.129876|    0.000000|    0.963821|
|           0|        9954|   -7.205305|   -2.130077|    0.000000|    0.963823|
|           0|        9955|   -7.205588|   -2.130278|    0.000000|    0.963826|
|           0|        9956|   -7.205870|   -2.130479|    0.000000|    0.963828|
|           0|        9957|   -7.206153|   -2.130680|    0.000000|    0.963830|
|           0|        9958|   -7.206436|   -2.130881|    0.000000|    0.963833|
|           0|        9959|   -7.206718|   -2.131081|    0.000000|    0.963835|
|           0|        9960|   -7.207001|   -2.131282|    0.000000|    0.963837|
|           0|        9961|   -7.207284|   -2.131483|    0.000000|    0.963840|
|           0|        9962|   -7.207567|   -2.131683|    0.000000|    0.963842|
|           0|        9963|   -7.207850|   -2.131884|    0.000000|    0.963844|
|           0|        9964|   -7.208133|   -2.132085|    0.000000|    0.963847|
|           0|        9965|   -7.208416|   -2.132285|    0.000000|    0.963849|
|           0|        9966|   -7.208699|   -2.132486|    0.000000|    0.963851|
|           0|        9967|   -7.208982|   -2.132686|    0.000000|    0.963854|
|           0|        9968|   -7.209265|   -2.132887|    0.000000|    0.963856|
|           0|        9969|   -7.209548|   -2.133087|    0.000000|    0.963859|
|           0|        9970|   -7.209831|   -2.133287|    0.000000|    0.963861|
|           0|        9971|   -7.210115|   -2.133488|    0.000000|    0.963863|
|           0|        9972|   -7.210398|   -2.133688|    0.000000|    0.963866|
|           0|        9973|   -7.210681|   -2.133888|    0.000000|    0.963868|
|           0|        9974|   -7.210965|   -2.134088|    0.000000|    0.963870|
|           0|        9975|   -7.211248|   -2.134289|    0.000000|    0.963873|
|           0|        9976|   -7.211531|   -2.134489|    0.000000|    0.963875|
|           0|        9977|   -7.211815|   -2.134689|    0.000000|    0.963877|
|           0|        9978|   -7.212098|   -2.134889|    0.000000|    0.963880|
|           0|        9979|   -7.212382|   -2.135089|    0.000000|    0.963882|
|           0|        9980|   -7.212666|   -2.135289|    0.000000|    0.963884|
|           0|        9981|   -7.212949|   -2.135489|    0.000000|    0.963887|
|           0|        9982|   -7.213233|   -2.135689|    0.000000|    0.963889|
|           0|        9983|   -7.213517|   -2.135889|    0.000000|    0.963891|
|           0|        9984|   -7.213800|   -2.136089|    0.000000|    0.963894|
|           0|        9985|   -7.214084|   -2.136289|    0.000000|    0.963896|
|           0|        9986|   -7.214368|   -2.136488|    0.000000|    0.963898|
|           0|        9987|   -7.214652|   -2.136688|    0.000000|    0.963901|
|           0|        9988|   -7.214936|   -2.136888|    0.000000|    0.963903|
|           0|        9989|   -7.215220|   -2.137088|    0.000000|    0.963906|
|           0|        9990|   -7.215504|   -2.137287|    0.000000|    0.963908|
|           0|        9991|   -7.215788|   -2.137487|    0.000000|    0.963910|
|           0|        9992|   -7.216072|   -2.137687|    0.000000|    0.963913|
|           0|        9993|   -7.216356|   -2.137886|    0.000000|    0.963915|
|           0|        9994|   -7.216640|   -2.138086|    0.000000|    0.963917|
|           0|        9995|   -7.216924|   -2.138285|    0.000000|    0.963920|
|           0|        9996|   -7.217208|   -2.138485|    0.000000|    0.963922|
|           0|        9997|   -7.217492|   -2.138684|    0.000000|    0.963924|
|           0|        9998|   -7.217776|   -2.138884|    0.000000|    0.963927|
|           0|        9999|   -7.218061|   -2.139083|    0.000000|    0.963929|

----------------------------- Solver Exit -------------------------------

Maximum number of iterations reached (ITER = 10000) before convergence.
+-----------------------------------------------------------------------+
|      Convergence Field     |     Value    |   Criterion  |  Converged |
+-----------------------------------------------------------------------+
|                 relrms[Rho]|      -3.58057|         < -15|          No|
+-----------------------------------------------------------------------+
-------------------------------------------------------------------------
+-----------------------------------------------------------------------+
|        File Writing Summary       |              Filename             |
+-----------------------------------------------------------------------+
|SU2 binary restart                 |restart_flow.dat                   |
|SU2 ASCII restart                  |restart_flow.csv                   |
|Paraview                           |flow.vtu                           |
|Paraview surface                   |surface_flow.vtu                   |
+-----------------------------------------------------------------------+

------------------------- Solver Postprocessing -------------------------
Deleted CNumerics container.
Deleted CIntegration container.
Deleted CSolver container.
Deleted CIteration container.
Deleted CInterface container.
Deleted CGeometry container.
Deleted CFreeFormDefBox class.
Deleted CSurfaceMovement class.
Deleted CVolumetricMovement class.
Deleted CConfig container.
Deleted nInst container.
Deleted COutput class.
-------------------------------------------------------------------------

------------------------- Exit Success (SU2_CFD) ------------------------

