Lmod has detected the following error: The following module(s) are unknown:
"epcc-job-env"

Please check the spelling or version number. Also try "module spider ..."
It is also possible your cache file is out-of-date; it may help to try:
  $ module --ignore-cache load "epcc-job-env"

Also make sure that all modulefiles written in TCL start with the string
#%Module




-------------------------------------------------------------------------
|    ___ _   _ ___                                                      |
|   / __| | | |_  )   Release 7.4.0 "Blackbird"                         |
|   \__ \ |_| |/ /                                                      |
|   |___/\___//___|   Suite (Computational Fluid Dynamics Code)         |
|                                                                       |
-------------------------------------------------------------------------
| SU2 Project Website: https://su2code.github.io                        |
|                                                                       |
| The SU2 Project is maintained by the SU2 Foundation                   |
| (http://su2foundation.org)                                            |
-------------------------------------------------------------------------
| Copyright 2012-2022, SU2 Contributors                                 |
|                                                                       |
| SU2 is free software; you can redistribute it and/or                  |
| modify it under the terms of the GNU Lesser General Public            |
| License as published by the Free Software Foundation; either          |
| version 2.1 of the License, or (at your option) any later version.    |
|                                                                       |
| SU2 is distributed in the hope that it will be useful,                |
| but WITHOUT ANY WARRANTY; without even the implied warranty of        |
| MERCHANTABILITY or FITNESS FOR A PARTICULAR PURPOSE. See the GNU      |
| Lesser General Public License for more details.                       |
|                                                                       |
| You should have received a copy of the GNU Lesser General Public      |
| License along with SU2. If not, see <http://www.gnu.org/licenses/>.   |
-------------------------------------------------------------------------

Parsing config file for zone 0

----------------- Physical Case Definition ( Zone 0 ) -------------------
Compressible RANS equations.
Turbulence model: Spalart-Allmaras-noft2
Hybrid RANS/LES: No Hybrid RANS/LES
Mach number: 0.01.
Angle of attack (AoA): 0 deg, and angle of sideslip (AoS): 0 deg.
Reynolds number: 5601. Reference length 1.
No restart solution, use the values at infinity (freestream).
Dimensional simulation.
The reference area will be computed using y(2D) or z(3D) projection.
The semi-span will be computed using the max y(3D) value.
The reference length is 1 m.
Reference origin for moment evaluation is (0, 0, 0).
Surface(s) where the force coefficients are evaluated: nozzle.

Surface(s) plotted in the output file: nozzle.
Input mesh file name: ../../template_run/jet_NLR_gr1.su2

--------------- Space Numerical Integration ( Zone 0 ) ------------------
Simple Low-Dissipation AUSM 2 solver for the flow inviscid terms.
Standard Roe without low-dissipation function.
Second order integration in space, with slope limiter.
No slope-limiting method. 
Scalar upwind solver for the turbulence model.
First order integration in space.
Average of gradients with correction (viscous flow terms).
Average of gradients with correction (viscous turbulence terms).
Gradient for upwind reconstruction: inverse-distance weighted Least-Squares.
Gradient for viscous and source terms: inverse-distance weighted Least-Squares.

--------------- Time Numerical Integration  ( Zone 0 ) ------------------
Local time stepping (steady state simulation).
Euler implicit method for the flow equations.
FGMRES is used for solving the linear system.
Using a ILU(0) preconditioning.
Convergence criteria of the linear solver: 1e-10.
Max number of linear iterations: 10.
No CFL adaptation.
Courant-Friedrichs-Lewy number:       10
Euler implicit time integration for the turbulence model.

------------------ Convergence Criteria  ( Zone 0 ) ---------------------
Maximum number of solver subiterations: 10000.
Begin convergence monitoring at iteration 0.
Residual minimum value: 1e-15.
Cauchy series min. value: 1e-05.
Number of Cauchy elements: 100.
Begin windowed time average at iteration 0.

-------------------- Output Information ( Zone 0 ) ----------------------
File writing frequency: 
+------------------------------------+
|                     File| Frequency|
+------------------------------------+
|                  RESTART|       500|
|            RESTART_ASCII|       500|
|                 PARAVIEW|       500|
|         SURFACE_PARAVIEW|       500|
+------------------------------------+
Writing the convergence history file every 1 inner iterations.
Writing the screen convergence history every 1 inner iterations.
The tabular file format is CSV (.csv).
Convergence history file name: history.
Forces breakdown file name: forces_breakdown.dat.
Surface file name: surface_flow.
Volume file name: flow.
Restart file name: restart_flow.dat.

------------- Config File Boundary Information ( Zone 0 ) ---------------
+-----------------------------------------------------------------------+
|                        Marker Type|                        Marker Name|
+-----------------------------------------------------------------------+
|                          Far-field|                          farfield1|
|                                   |                          farfield2|
|                                   |                          farfield3|
+-----------------------------------------------------------------------+
|                     Inlet boundary|                              inlet|
+-----------------------------------------------------------------------+
|                    Outlet boundary|                             outlet|
+-----------------------------------------------------------------------+
|                     Heat flux wall|                             nozzle|
+-----------------------------------------------------------------------+

-------------------- Output Preprocessing ( Zone 0 ) --------------------

WARNING: SURFACE_PRESSURE_DROP can only be computed for at least 2 surfaces (outlet, inlet, ...)

Screen output fields: TIME_ITER, INNER_ITER, RMS_DENSITY, RMS_NU_TILDE, LIFT, DRAG
History output group(s): ITER, RMS_RES, REL_RMS_RES, AERO_COEFF
Convergence field(s): REL_RMS_DENSITY
Warning: No (valid) fields chosen for time convergence monitoring. Time convergence monitoring inactive.
Volume output fields: PRIMITIVE, VORTEX_IDENTIFICATION, COORDINATES, SOLUTION

------------------- Geometry Preprocessing ( Zone 0 ) -------------------
Three dimensional problem.
1521230 grid points before partitioning.
1504960 volume elements before partitioning.
6 surface markers.
17216 boundary elements in index 0 (Marker = farfield1).
2240 boundary elements in index 1 (Marker = farfield2).
3648 boundary elements in index 2 (Marker = farfield3).
1472 boundary elements in index 3 (Marker = inlet).
2240 boundary elements in index 4 (Marker = nozzle).
5120 boundary elements in index 5 (Marker = outlet).
Executing the partitioning functions.
Building the graph adjacency structure.
Calling ParMETIS... graph partitioning complete (262320 edge cuts).
Distributing ParMETIS coloring.
Rebalancing vertices.
Rebalancing volume element connectivity.
Rebalancing markers and surface elements.
2088390 vertices including ghost points. 
1776192 interior elements including halo cells. 
1776192 hexahedra.
Establishing MPI communication patterns.
Setting point connectivity.
Renumbering points (Reverse Cuthill McKee Ordering).
Recomputing point connectivity.
Setting element connectivity.
Checking the numerical grid orientation.
All volume elements are correctly orientend.
All surface elements are correctly orientend.
Identifying edges and vertices.
Setting the control volume structure.
Volume of the computational grid: 152298.
Searching for the closest normal neighbors to the surfaces.
Storing a mapping from global to local point index.
Compute the surface curvature.
Max K: 0. Mean K: 0. Standard deviation K: 0.
Checking for periodicity.
Computing mesh quality statistics for the dual control volumes.
+--------------------------------------------------------------+
|           Mesh Quality Metric|        Minimum|        Maximum|
+--------------------------------------------------------------+
|    Orthogonality Angle (deg.)|        58.2023|        89.9982|
|     CV Face Area Aspect Ratio|        1.00819|         505.66|
|           CV Sub-Volume Ratio|        1.00188|        1.61202|
+--------------------------------------------------------------+
Finding max control volume width.
Communicating number of neighbors.
Reference area = 8.81019 m^2.
Semi-span length = 0.784008 m.
Wetted area = 27.7764 m^2.
Area projection in the x-plane = 0.0189088 m^2, y-plane = 8.81019 m^2, z-plane = 8.81019 m^2.
Max. coordinate in the x-direction = 0 m, y-direction = 0.784008 m, z-direction = 0.784008 m.
Min. coordinate in the x-direction = -6 m, y-direction = -0.784008 m, z-direction = -0.784008 m.
Computing wall distances.

-------------------- Solver Preprocessing ( Zone 0 ) --------------------
Viscous flow: Computing pressure using the ideal gas law
based on the free-stream temperature and a density computed
from the Reynolds number.
Force coefficients computed using free-stream values.

-- Models:
+------------------------------------------------------------------------------+
|          Viscosity Model|        Conductivity Model|              Fluid Model|
+------------------------------------------------------------------------------+
|               SUTHERLAND|          CONSTANT_PRANDTL|             STANDARD_AIR|
+------------------------------------------------------------------------------+
-- Fluid properties:
+------------------------------------------------------------------------------+
|                  Name|    Dim. value|    Ref. value|      Unit|Non-dim. value|
+------------------------------------------------------------------------------+
|        Ref. Viscosity|     1.716e-05|             1|   N.s/m^2|     1.716e-05|
|      Sutherland Temp.|        273.15|             1|         K|        273.15|
|     Sutherland Const.|         110.4|             1|         K|         110.4|
+------------------------------------------------------------------------------+
|        Prandtl (Lam.)|             -|             -|         -|          0.72|
|       Prandtl (Turb.)|             -|             -|         -|           0.9|
+------------------------------------------------------------------------------+
|          Gas Constant|       287.058|             1|  N.m/kg.K|       287.058|
|      Spec. Heat Ratio|             -|             -|         -|           1.4|
+------------------------------------------------------------------------------+
-- Initial and free-stream conditions:
+------------------------------------------------------------------------------+
|                  Name|    Dim. value|    Ref. value|      Unit|Non-dim. value|
+------------------------------------------------------------------------------+
|       Static Pressure|          6223|             1|        Pa|          6223|
|               Density|     0.0722618|             1|    kg/m^3|     0.0722618|
|           Temperature|           300|             1|         K|           300|
|          Total Energy|        215300|             1|   m^2/s^2|        215300|
|            Velocity-X|       3.47224|             1|       m/s|       3.47224|
|            Velocity-Y|             0|             1|       m/s|             0|
|            Velocity-Z|             0|             1|       m/s|             0|
|    Velocity Magnitude|       3.47224|             1|       m/s|       3.47224|
+------------------------------------------------------------------------------+
|             Viscosity|   1.84592e-05|             1|   N.s/m^2|   1.84592e-05|
|          Conductivity|             -|             1|   W/m^2.K|             -|
|     Turb. Kin. Energy|     0.0452116|             1|   m^2/s^2|     0.0452116|
|     Spec. Dissipation|       17.6989|             1|       1/s|       17.6989|
+------------------------------------------------------------------------------+
|           Mach Number|             -|             -|         -|          0.01|
|       Reynolds Number|             -|             -|         -|       13592.7|
+------------------------------------------------------------------------------+
Initialize Jacobian structure (Navier-Stokes). MG level: 0.
Initialize Jacobian structure (SA model).

Reading inlet profile from file: example_inlet.dat
No Inlet Interpolation being used
No Inlet Interpolation being used
No Inlet Interpolation being used
No Inlet Interpolation being used
No Inlet Interpolation being used
No Inlet Interpolation being used
No Inlet Interpolation being used
No Inlet Interpolation being used
No Inlet Interpolation being used
No Inlet Interpolation being used
No Inlet Interpolation being used
No Inlet Interpolation being used
No Inlet Interpolation being used
No Inlet Interpolation being used

------------------- Numerics Preprocessing ( Zone 0 ) -------------------

----------------- Integration Preprocessing ( Zone 0 ) ------------------

------------------- Iteration Preprocessing ( Zone 0 ) ------------------
Euler/Navier-Stokes/RANS fluid iteration.

------------------------------ Begin Solver -----------------------------

Simulation Run using the Single-zone Driver
+-----------------------------------------------------------------------------+
|   Time_Iter|  Inner_Iter|    rms[Rho]|     rms[nu]|          CL|          CD|
+-----------------------------------------------------------------------------+
|           0|           0|   -3.888561|   -5.865671|   -0.000000|    4.901771|
|           0|           1|   -4.165955|   -5.905508|    0.000002|    5.539051|
|           0|           2|   -4.425643|   -5.926792|    0.000004|    4.512099|
|           0|           3|   -4.492889|   -5.960716|    0.000004|    3.244865|
|           0|           4|   -4.530439|   -5.986701|    0.000003|    2.385890|
|           0|           5|   -4.558666|   -6.008355|    0.000002|    1.889300|
|           0|           6|   -4.582412|   -6.028199|    0.000001|    1.476419|
|           0|           7|   -4.605221|   -6.048316|    0.000001|    0.941514|
|           0|           8|   -4.626899|   -6.067950|    0.000001|    0.214921|
|           0|           9|   -4.645577|   -6.086291|    0.000001|   -0.691856|
|           0|          10|   -4.659663|   -6.103385|    0.000001|   -1.744640|
|           0|          11|   -4.668373|   -6.119219|    0.000002|   -2.912044|
|           0|          12|   -4.671673|   -6.133780|    0.000002|   -4.168676|
|           0|          13|   -4.670081|   -6.147074|    0.000002|   -5.492741|
|           0|          14|   -4.664425|   -6.159103|    0.000002|   -6.864703|
|           0|          15|   -4.655626|   -6.169867|   -0.000000|   -8.266800|
|           0|          16|   -4.644554|   -6.179342|   -0.000003|   -9.682416|
|           0|          17|   -4.631865|   -6.187592|   -0.000008|  -11.095672|
|           0|          18|   -4.618142|   -6.195112|   -0.000014|  -12.490965|
|           0|          19|   -4.603977|   -6.203983|   -0.000021|  -13.852956|
|           0|          20|   -4.589578|   -6.218380|   -0.000028|  -15.166727|
|           0|          21|   -4.575126|   -6.236322|   -0.000035|  -16.417984|
|           0|          22|   -4.560667|   -6.250460|   -0.000042|  -17.593093|
|           0|          23|   -4.546595|   -6.258846|   -0.000048|  -18.678253|
|           0|          24|   -4.533018|   -6.262643|   -0.000052|  -19.659414|
|           0|          25|   -4.519917|   -6.263466|   -0.000054|  -20.522598|
|           0|          26|   -4.507463|   -6.262370|   -0.000055|  -21.253420|
|           0|          27|   -4.495627|   -6.260063|   -0.000053|  -21.837836|
|           0|          28|   -4.484422|   -6.257005|   -0.000049|  -22.261847|
|           0|          29|   -4.473781|   -6.253596|   -0.000045|  -22.513713|
|           0|          30|   -4.463640|   -6.249863|   -0.000039|  -22.580611|
|           0|          31|   -4.453909|   -6.245866|   -0.000033|  -22.451926|
|           0|          32|   -4.444490|   -6.241564|   -0.000027|  -22.116800|
|           0|          33|   -4.435304|   -6.236947|   -0.000021|  -21.567734|
|           0|          34|   -4.426261|   -6.231983|   -0.000015|  -20.801484|
|           0|          35|   -4.417281|   -6.226610|   -0.000009|  -19.819233|
|           0|          36|   -4.408299|   -6.220819|   -0.000002|  -18.627009|
|           0|          37|   -4.399264|   -6.214462|    0.000004|  -17.235660|
|           0|          38|   -4.390137|   -6.207494|    0.000009|  -15.660432|
|           0|          39|   -4.380894|   -6.199861|    0.000013|  -13.920621|
|           0|          40|   -4.371516|   -6.191515|    0.000014|  -12.039375|
|           0|          41|   -4.361996|   -6.182416|    0.000013|  -10.043175|
|           0|          42|   -4.352331|   -6.172485|    0.000008|   -7.961198|
|           0|          43|   -4.342528|   -6.161743|   -0.000001|   -5.824277|
|           0|          44|   -4.332600|   -6.150233|   -0.000014|   -3.663884|
|           0|          45|   -4.322572|   -6.137966|   -0.000030|   -1.511089|
|           0|          46|   -4.312478|   -6.125070|   -0.000050|    0.604226|
|           0|          47|   -4.302358|   -6.111660|   -0.000071|    2.654513|
|           0|          48|   -4.292259|   -6.097838|   -0.000092|    4.615416|
|           0|          49|   -4.282228|   -6.083737|   -0.000113|    6.466260|
|           0|          50|   -4.272305|   -6.069367|   -0.000130|    8.190521|
|           0|          51|   -4.262520|   -6.054908|   -0.000142|    9.776026|
|           0|          52|   -4.252889|   -6.040419|   -0.000148|   11.215029|
|           0|          53|   -4.243410|   -6.025983|   -0.000146|   12.503940|
|           0|          54|   -4.234065|   -6.011662|   -0.000136|   13.643002|
|           0|          55|   -4.224825|   -5.997469|   -0.000117|   14.635909|
|           0|          56|   -4.215648|   -5.983474|   -0.000090|   15.489295|
|           0|          57|   -4.206490|   -5.969631|   -0.000056|   16.212220|
|           0|          58|   -4.197306|   -5.956024|   -0.000016|   16.815409|
|           0|          59|   -4.188056|   -5.942603|    0.000027|   17.310831|
|           0|          60|   -4.178710|   -5.929423|    0.000072|   17.710644|
|           0|          61|   -4.169245|   -5.916442|    0.000117|   18.026735|
|           0|          62|   -4.159648|   -5.903649|    0.000159|   18.270487|
|           0|          63|   -4.149915|   -5.891092|    0.000198|   18.452428|
|           0|          64|   -4.140051|   -5.878713|    0.000231|   18.582059|
|           0|          65|   -4.130064|   -5.866534|    0.000258|   18.667651|
|           0|          66|   -4.119969|   -5.854529|    0.000280|   18.716119|
|           0|          67|   -4.109783|   -5.842699|    0.000297|   18.733108|
|           0|          68|   -4.099525|   -5.831054|    0.000309|   18.723137|
|           0|          69|   -4.089217|   -5.819573|    0.000316|   18.689752|
|           0|          70|   -4.078885|   -5.808256|    0.000317|   18.635704|
|           0|          71|   -4.068558|   -5.797123|    0.000311|   18.563120|
|           0|          72|   -4.058267|   -5.786161|    0.000299|   18.473665|
|           0|          73|   -4.048049|   -5.775373|    0.000280|   18.368674|
|           0|          74|   -4.037947|   -5.764780|    0.000254|   18.249253|
|           0|          75|   -4.028006|   -5.754331|    0.000221|   18.116352|
|           0|          76|   -4.018275|   -5.744054|    0.000180|   17.970794|
|           0|          77|   -4.008807|   -5.733979|    0.000134|   17.813275|
|           0|          78|   -3.999658|   -5.724141|    0.000083|   17.644342|
|           0|          79|   -3.990880|   -5.714543|    0.000028|   17.464353|
|           0|          80|   -3.982527|   -5.705203|   -0.000029|   17.273440|
|           0|          81|   -3.974647|   -5.696134|   -0.000087|   17.071470|
|           0|          82|   -3.967281|   -5.687337|   -0.000143|   16.858022|
|           0|          83|   -3.960461|   -5.678815|   -0.000197|   16.632388|
|           0|          84|   -3.954207|   -5.670567|   -0.000246|   16.393585|
|           0|          85|   -3.948526|   -5.662586|   -0.000291|   16.140402|
|           0|          86|   -3.943407|   -5.654866|   -0.000328|   15.871455|
|           0|          87|   -3.938821|   -5.647379|   -0.000359|   15.585268|
|           0|          88|   -3.934723|   -5.640110|   -0.000382|   15.280361|
|           0|          89|   -3.931049|   -5.633036|   -0.000398|   14.955343|
|           0|          90|   -3.927717|   -5.626115|   -0.000405|   14.609002|
|           0|          91|   -3.924634|   -5.619321|   -0.000405|   14.240394|
|           0|          92|   -3.921699|   -5.612628|   -0.000397|   13.848840|
|           0|          93|   -3.918804|   -5.605984|   -0.000382|   13.433984|
|           0|          94|   -3.915849|   -5.599357|   -0.000359|   12.996193|
|           0|          95|   -3.912739|   -5.592736|   -0.000331|   12.536147|
|           0|          96|   -3.909398|   -5.586079|   -0.000298|   12.054870|
|           0|          97|   -3.905769|   -5.579356|   -0.000261|   11.553758|
|           0|          98|   -3.901818|   -5.572538|   -0.000220|   11.034557|
|           0|          99|   -3.897536|   -5.565636|   -0.000176|   10.499297|
|           0|         100|   -3.892937|   -5.558629|   -0.000131|    9.950211|
|           0|         101|   -3.888053|   -5.551492|   -0.000084|    9.389658|
|           0|         102|   -3.882930|   -5.544190|   -0.000036|    8.820045|
|           0|         103|   -3.877622|   -5.536790|    0.000012|    8.243767|
|           0|         104|   -3.872187|   -5.529274|    0.000060|    7.663153|
|           0|         105|   -3.866683|   -5.521618|    0.000108|    7.080413|
|           0|         106|   -3.861162|   -5.513768|    0.000154|    6.497605|
|           0|         107|   -3.855669|   -5.505803|    0.000198|    5.916610|
|           0|         108|   -3.850243|   -5.497790|    0.000240|    5.339114|
|           0|         109|   -3.844916|   -5.489673|    0.000277|    4.766613|
|           0|         110|   -3.839714|   -5.481406|    0.000310|    4.200409|
|           0|         111|   -3.834662|   -5.472998|    0.000338|    3.641633|
|           0|         112|   -3.829783|   -5.464552|    0.000360|    3.091252|
|           0|         113|   -3.825101|   -5.456091|    0.000376|    2.550095|
|           0|         114|   -3.820644|   -5.447569|    0.000386|    2.018875|
|           0|         115|   -3.816446|   -5.438941|    0.000390|    1.498201|
|           0|         116|   -3.812543|   -5.430224|    0.000387|    0.988607|
|           0|         117|   -3.808980|   -5.421496|    0.000378|    0.490560|
|           0|         118|   -3.805804|   -5.412824|    0.000364|    0.004484|
|           0|         119|   -3.803067|   -5.404169|    0.000345|   -0.469236|
|           0|         120|   -3.800822|   -5.395457|    0.000321|   -0.930235|
|           0|         121|   -3.799121|   -5.386714|    0.000294|   -1.378166|
|           0|         122|   -3.798015|   -5.378031|    0.000263|   -1.812680|
|           0|         123|   -3.797550|   -5.369445|    0.000228|   -2.233424|
|           0|         124|   -3.797765|   -5.360979|    0.000192|   -2.640021|
|           0|         125|   -3.798693|   -5.352555|    0.000153|   -3.032063|
|           0|         126|   -3.800356|   -5.344131|    0.000112|   -3.409091|
|           0|         127|   -3.802765|   -5.335726|    0.000070|   -3.770580|
|           0|         128|   -3.805918|   -5.327295|    0.000026|   -4.115923|
|           0|         129|   -3.809798|   -5.318850|   -0.000017|   -4.444414|
|           0|         130|   -3.814373|   -5.310381|   -0.000061|   -4.755235|
|           0|         131|   -3.819591|   -5.301896|   -0.000105|   -5.047443|
|           0|         132|   -3.825378|   -5.293356|   -0.000148|   -5.319967|
|           0|         133|   -3.831639|   -5.284728|   -0.000189|   -5.571606|
|           0|         134|   -3.838253|   -5.276007|   -0.000227|   -5.801109|
|           0|         135|   -3.845074|   -5.267203|   -0.000263|   -6.007815|
|           0|         136|   -3.851931|   -5.258378|   -0.000294|   -6.189752|
|           0|         137|   -3.858635|   -5.249472|   -0.000321|   -6.344859|
|           0|         138|   -3.864979|   -5.240455|   -0.000342|   -6.471523|
|           0|         139|   -3.870752|   -5.231371|   -0.000358|   -6.569040|
|           0|         140|   -3.875753|   -5.222181|   -0.000366|   -6.636284|
|           0|         141|   -3.879803|   -5.212890|   -0.000368|   -6.671789|
|           0|         142|   -3.882764|   -5.203510|   -0.000363|   -6.673929|
|           0|         143|   -3.884553|   -5.194061|   -0.000351|   -6.641409|
|           0|         144|   -3.885149|   -5.184552|   -0.000332|   -6.573526|
|           0|         145|   -3.884603|   -5.175007|   -0.000308|   -6.470107|
|           0|         146|   -3.883027|   -5.165431|   -0.000279|   -6.331361|
|           0|         147|   -3.880591|   -5.155846|   -0.000245|   -6.157793|
|           0|         148|   -3.877504|   -5.146247|   -0.000208|   -5.950221|
|           0|         149|   -3.873999|   -5.136663|   -0.000168|   -5.709837|
|           0|         150|   -3.870318|   -5.127100|   -0.000128|   -5.438245|
|           0|         151|   -3.866699|   -5.117585|   -0.000087|   -5.137457|
|           0|         152|   -3.863364|   -5.108122|   -0.000046|   -4.809866|
|           0|         153|   -3.860510|   -5.098726|   -0.000007|   -4.458208|
|           0|         154|   -3.858310|   -5.089401|    0.000030|   -4.085522|
|           0|         155|   -3.856909|   -5.080154|    0.000064|   -3.695109|
|           0|         156|   -3.856423|   -5.070986|    0.000096|   -3.290488|
|           0|         157|   -3.856941|   -5.061907|    0.000124|   -2.875349|
|           0|         158|   -3.858527|   -5.052919|    0.000148|   -2.453500|
|           0|         159|   -3.861222|   -5.044014|    0.000168|   -2.028814|
|           0|         160|   -3.865046|   -5.035186|    0.000185|   -1.605170|
|           0|         161|   -3.869997|   -5.026410|    0.000198|   -1.186398|
|           0|         162|   -3.876053|   -5.017657|    0.000206|   -0.776224|
|           0|         163|   -3.883174|   -5.008888|    0.000211|   -0.378216|
|           0|         164|   -3.891302|   -5.000063|    0.000212|    0.004266|
|           0|         165|   -3.900357|   -4.991148|    0.000210|    0.368115|
|           0|         166|   -3.910241|   -4.982126|    0.000204|    0.710518|
|           0|         167|   -3.920838|   -4.972995|    0.000195|    1.028989|
|           0|         168|   -3.932009|   -4.963749|    0.000183|    1.321395|
|           0|         169|   -3.943600|   -4.954394|    0.000169|    1.585979|
|           0|         170|   -3.955437|   -4.944934|    0.000152|    1.821368|
|           0|         171|   -3.967332|   -4.935397|    0.000133|    2.026572|
|           0|         172|   -3.979087|   -4.925793|    0.000114|    2.200761|
|           0|         173|   -3.990503|   -4.916155|    0.000093|    2.343714|
|           0|         174|   -4.001383|   -4.906484|    0.000072|    2.455674|
|           0|         175|   -4.011543|   -4.896811|    0.000051|    2.537245|
|           0|         176|   -4.020825|   -4.887126|    0.000030|    2.589303|
|           0|         177|   -4.029102|   -4.877452|    0.000010|    2.612955|
|           0|         178|   -4.036286|   -4.867771|   -0.000009|    2.609533|
|           0|         179|   -4.042336|   -4.858094|   -0.000026|    2.580588|
|           0|         180|   -4.047255|   -4.848404|   -0.000043|    2.527867|
|           0|         181|   -4.051089|   -4.838701|   -0.000057|    2.453280|
|           0|         182|   -4.053923|   -4.828973|   -0.000071|    2.358857|
|           0|         183|   -4.055868|   -4.819214|   -0.000082|    2.246585|
|           0|         184|   -4.057059|   -4.809418|   -0.000092|    2.118654|
|           0|         185|   -4.057642|   -4.799576|   -0.000100|    1.977302|
|           0|         186|   -4.057765|   -4.789690|   -0.000107|    1.824824|
|           0|         187|   -4.057574|   -4.779750|   -0.000111|    1.663486|
|           0|         188|   -4.057209|   -4.769760|   -0.000115|    1.495490|
|           0|         189|   -4.056798|   -4.759714|   -0.000117|    1.322974|
|           0|         190|   -4.056457|   -4.749615|   -0.000117|    1.148038|
|           0|         191|   -4.056287|   -4.739461|   -0.000116|    0.972738|
|           0|         192|   -4.056377|   -4.729253|   -0.000113|    0.799073|
|           0|         193|   -4.056802|   -4.718991|   -0.000109|    0.628973|
|           0|         194|   -4.057622|   -4.708675|   -0.000103|    0.464284|
|           0|         195|   -4.058888|   -4.698312|   -0.000096|    0.306760|
|           0|         196|   -4.060633|   -4.687890|   -0.000088|    0.158057|
|           0|         197|   -4.062883|   -4.677434|   -0.000078|    0.019724|
|           0|         198|   -4.065649|   -4.666909|   -0.000067|   -0.106813|
|           0|         199|   -4.068930|   -4.656366|   -0.000055|   -0.220261|
|           0|         200|   -4.072711|   -4.645741|   -0.000042|   -0.319482|
|           0|         201|   -4.076966|   -4.635117|   -0.000027|   -0.403504|
|           0|         202|   -4.081654|   -4.624393|   -0.000013|   -0.471544|
|           0|         203|   -4.086717|   -4.613699|    0.000003|   -0.523025|
|           0|         204|   -4.092085|   -4.602887|    0.000018|   -0.557589|
|           0|         205|   -4.097672|   -4.592117|    0.000034|   -0.575112|
|           0|         206|   -4.103378|   -4.581233|    0.000049|   -0.575718|
|           0|         207|   -4.109086|   -4.570388|    0.000064|   -0.559779|
|           0|         208|   -4.114671|   -4.559453|    0.000078|   -0.527924|
|           0|         209|   -4.119999|   -4.548524|    0.000091|   -0.481026|
|           0|         210|   -4.124931|   -4.537550|    0.000102|   -0.420197|
|           0|         211|   -4.129332|   -4.526532|    0.000111|   -0.346766|
|           0|         212|   -4.133076|   -4.515549|    0.000119|   -0.262259|
|           0|         213|   -4.136055|   -4.504426|    0.000125|   -0.168364|
|           0|         214|   -4.138187|   -4.493438|    0.000128|   -0.066901|
|           0|         215|   -4.139420|   -4.482261|    0.000129|    0.040223|
|           0|         216|   -4.139744|   -4.471233|    0.000127|    0.151050|
|           0|         217|   -4.139179|   -4.460057|    0.000123|    0.263620|
|           0|         218|   -4.137793|   -4.448951|    0.000117|    0.376009|
|           0|         219|   -4.135682|   -4.437829|    0.000108|    0.486376|
|           0|         220|   -4.132972|   -4.426599|    0.000097|    0.592997|
|           0|         221|   -4.129816|   -4.415565|    0.000085|    0.694302|
|           0|         222|   -4.126369|   -4.404280|    0.000070|    0.788902|
|           0|         223|   -4.122807|   -4.393255|    0.000055|    0.875611|
|           0|         224|   -4.119287|   -4.382042|    0.000038|    0.953463|
|           0|         225|   -4.115973|   -4.370916|    0.000021|    1.021721|
|           0|         226|   -4.113016|   -4.359853|    0.000003|    1.079874|
|           0|         227|   -4.110542|   -4.348556|   -0.000014|    1.127639|
|           0|         228|   -4.108677|   -4.337658|   -0.000030|    1.164942|
|           0|         229|   -4.107511|   -4.326444|   -0.000045|    1.191908|
|           0|         230|   -4.107128|   -4.315453|   -0.000059|    1.208835|
|           0|         231|   -4.107589|   -4.304443|   -0.000071|    1.216172|
|           0|         232|   -4.108925|   -4.293233|   -0.000081|    1.214493|
|           0|         233|   -4.111164|   -4.282470|   -0.000089|    1.204464|
|           0|         234|   -4.114290|   -4.271336|   -0.000094|    1.186819|
|           0|         235|   -4.118276|   -4.260486|   -0.000096|    1.162329|
|           0|         236|   -4.123061|   -4.249621|   -0.000097|    1.131777|
|           0|         237|   -4.128552|   -4.238498|   -0.000095|    1.095927|
|           0|         238|   -4.134633|   -4.227920|   -0.000090|    1.055509|
|           0|         239|   -4.141139|   -4.216970|   -0.000084|    1.011195|
|           0|         240|   -4.147883|   -4.206196|   -0.000077|    0.963581|
|           0|         241|   -4.154637|   -4.195595|   -0.000068|    0.913177|
|           0|         242|   -4.161142|   -4.184597|   -0.000059|    0.860399|
|           0|         243|   -4.167128|   -4.174170|   -0.000049|    0.805559|
|           0|         244|   -4.172300|   -4.163507|   -0.000039|    0.748871|
|           0|         245|   -4.176406|   -4.152706|   -0.000029|    0.690447|
|           0|         246|   -4.179205|   -4.142426|   -0.000020|    0.630310|
|           0|         247|   -4.180512|   -4.131727|   -0.000011|    0.568404|
|           0|         248|   -4.180253|   -4.121250|   -0.000004|    0.504605|
|           0|         249|   -4.178399|   -4.110976|    0.000003|    0.438744|
|           0|         250|   -4.175039|   -4.100262|    0.000008|    0.370623|
|           0|         251|   -4.170350|   -4.090080|    0.000012|    0.300037|
|           0|         252|   -4.164537|   -4.079804|    0.000015|    0.226801|
|           0|         253|   -4.157900|   -4.069166|    0.000016|    0.150767|
|           0|         254|   -4.150726|   -4.059179|    0.000017|    0.071848|
|           0|         255|   -4.143285|   -4.048911|    0.000016|   -0.009962|
|           0|         256|   -4.135892|   -4.038424|    0.000015|   -0.094575|
|           0|         257|   -4.128779|   -4.028543|    0.000013|   -0.181798|
|           0|         258|   -4.122145|   -4.018299|    0.000010|   -0.271324|
|           0|         259|   -4.116213|   -4.007949|    0.000008|   -0.362732|
|           0|         260|   -4.111104|   -3.998153|    0.000005|   -0.455492|
|           0|         261|   -4.106919|   -3.987944|    0.000003|   -0.548973|
|           0|         262|   -4.103775|   -3.977697|    0.000001|   -0.642460|
|           0|         263|   -4.101694|   -3.967970|   -0.000001|   -0.735167|
|           0|         264|   -4.100688|   -3.957805|   -0.000003|   -0.826265|
|           0|         265|   -4.100785|   -3.947601|   -0.000003|   -0.914900|
|           0|         266|   -4.101918|   -3.937947|   -0.000004|   -1.000215|
|           0|         267|   -4.104015|   -3.927843|   -0.000003|   -1.081378|
|           0|         268|   -4.107015|   -3.917609|   -0.000003|   -1.157598|
|           0|         269|   -4.110761|   -3.908036|   -0.000002|   -1.228148|
|           0|         270|   -4.115085|   -3.898006|   -0.000000|   -1.292374|
|           0|         271|   -4.119838|   -3.887676|    0.000002|   -1.349714|
|           0|         272|   -4.124768|   -3.878174|    0.000003|   -1.399699|
|           0|         273|   -4.129616|   -3.868244|    0.000005|   -1.441961|
|           0|         274|   -4.134174|   -3.857809|    0.000007|   -1.476233|
|           0|         275|   -4.138156|   -3.848300|    0.000009|   -1.502347|
|           0|         276|   -4.141288|   -3.838512|    0.000010|   -1.520227|
|           0|         277|   -4.143414|   -3.828143|    0.000011|   -1.529887|
|           0|         278|   -4.144362|   -3.818394|    0.000012|   -1.531420|
|           0|         279|   -4.144011|   -3.808788|    0.000012|   -1.524992|
|           0|         280|   -4.142378|   -3.798548|    0.000012|   -1.510832|
|           0|         281|   -4.139543|   -3.788380|    0.000012|   -1.489224|
|           0|         282|   -4.135618|   -3.778967|    0.000011|   -1.460499|
|           0|         283|   -4.130786|   -3.768907|    0.000009|   -1.425028|
|           0|         284|   -4.125321|   -3.758317|    0.000008|   -1.383212|
|           0|         285|   -4.119456|   -3.748914|    0.000006|   -1.335477|
|           0|         286|   -4.113411|   -3.739092|    0.000004|   -1.282268|
|           0|         287|   -4.107451|   -3.728630|    0.000002|   -1.224039|
|           0|         288|   -4.101791|   -3.718588|    0.000000|   -1.161251|
|           0|         289|   -4.096591|   -3.709068|   -0.000001|   -1.094360|
|           0|         290|   -4.091976|   -3.698851|   -0.000002|   -1.023818|
|           0|         291|   -4.088088|   -3.688181|   -0.000002|   -0.950061|
|           0|         292|   -4.084996|   -3.678696|   -0.000002|   -0.873509|
|           0|         293|   -4.082699|   -3.668800|   -0.000001|   -0.794557|
|           0|         294|   -4.081211|   -3.658241|    0.000001|   -0.713573|
|           0|         295|   -4.080532|   -3.647884|    0.000004|   -0.630896|
|           0|         296|   -4.080577|   -3.638344|    0.000007|   -0.546832|
|           0|         297|   -4.081209|   -3.628103|    0.000011|   -0.461656|
|           0|         298|   -4.082360|   -3.617387|    0.000016|   -0.375611|
|           0|         299|   -4.083898|   -3.607391|    0.000021|   -0.288910|
|           0|         300|   -4.085603|   -3.597569|    0.000027|   -0.201741|
|           0|         301|   -4.087283|   -3.587075|    0.000032|   -0.114269|
|           0|         302|   -4.088821|   -3.576320|    0.000037|   -0.026645|
|           0|         303|   -4.090018|   -3.566465|    0.000042|    0.060990|
|           0|         304|   -4.090637|   -3.556398|    0.000046|    0.148497|
|           0|         305|   -4.090589|   -3.545731|    0.000048|    0.235733|
|           0|         306|   -4.089831|   -3.535005|    0.000049|    0.322544|
|           0|         307|   -4.088251|   -3.525125|    0.000049|    0.408759|
|           0|         308|   -4.085805|   -3.514874|    0.000047|    0.494188|
|           0|         309|   -4.082617|   -3.504083|    0.000044|    0.578611|
|           0|         310|   -4.078804|   -3.493342|    0.000039|    0.661784|
|           0|         311|   -4.074430|   -3.483413|    0.000032|    0.743435|
|           0|         312|   -4.069632|   -3.473013|    0.000024|    0.823264|
|           0|         313|   -4.064647|   -3.462129|    0.000014|    0.900946|
|           0|         314|   -4.059646|   -3.451377|    0.000003|    0.976137|
|           0|         315|   -4.054738|   -3.441346|   -0.000008|    1.048476|
|           0|         316|   -4.050065|   -3.430839|   -0.000019|    1.117596|
|           0|         317|   -4.045796|   -3.419918|   -0.000031|    1.183126|
|           0|         318|   -4.042033|   -3.409066|   -0.000042|    1.244701|
|           0|         319|   -4.038806|   -3.398932|   -0.000051|    1.301968|
|           0|         320|   -4.036156|   -3.388400|   -0.000060|    1.354595|
|           0|         321|   -4.034128|   -3.377446|   -0.000067|    1.402277|
|           0|         322|   -4.032734|   -3.366475|   -0.000073|    1.444738|
|           0|         323|   -4.031895|   -3.356234|   -0.000076|    1.481743|
|           0|         324|   -4.031530|   -3.345714|   -0.000077|    1.513096|
|           0|         325|   -4.031587|   -3.334708|   -0.000076|    1.538644|
|           0|         326|   -4.032005|   -3.323626|   -0.000073|    1.558282|
|           0|         327|   -4.032621|   -3.313245|   -0.000068|    1.571951|
|           0|         328|   -4.033263|   -3.302751|   -0.000062|    1.579637|
|           0|         329|   -4.033842|   -3.291731|   -0.000054|    1.581375|
|           0|         330|   -4.034296|   -3.280538|   -0.000046|    1.577242|
|           0|         331|   -4.034448|   -3.269924|   -0.000036|    1.567359|
|           0|         332|   -4.034140|   -3.259526|   -0.000027|    1.551809|
|           0|         333|   -4.033349|   -3.248539|   -0.000018|    1.530786|
|           0|         334|   -4.032114|   -3.237227|   -0.000010|    1.504595|
|           0|         335|   -4.030360|   -3.226327|   -0.000002|    1.473533|
|           0|         336|   -4.028041|   -3.216043|    0.000004|    1.437888|
|           0|         337|   -4.025251|   -3.205216|    0.000010|    1.397954|
|           0|         338|   -4.022153|   -3.193989|    0.000013|    1.354046|
|           0|         339|   -4.018803|   -3.182797|    0.000016|    1.306505|
|           0|         340|   -4.015241|   -3.172413|    0.000017|    1.255683|
|           0|         341|   -4.011587|   -3.161926|    0.000017|    1.201945|
|           0|         342|   -4.008022|   -3.150878|    0.000016|    1.145652|
|           0|         343|   -4.004663|   -3.139539|    0.000014|    1.087163|
|           0|         344|   -4.001535|   -3.128874|    0.000011|    1.026827|
|           0|         345|   -3.998670|   -3.118682|    0.000008|    0.964983|
|           0|         346|   -3.996173|   -3.107908|    0.000005|    0.901953|
|           0|         347|   -3.994129|   -3.096696|    0.000001|    0.838044|
|           0|         348|   -3.992502|   -3.085879|   -0.000002|    0.773540|
|           0|         349|   -3.991234|   -3.075893|   -0.000006|    0.708706|
|           0|         350|   -3.990306|   -3.065604|   -0.000009|    0.643783|
|           0|         351|   -3.989733|   -3.054761|   -0.000012|    0.578990|
|           0|         352|   -3.989477|   -3.043922|   -0.000014|    0.514524|
|           0|         353|   -3.989414|   -3.033716|   -0.000016|    0.450563|
|           0|         354|   -3.989409|   -3.023948|   -0.000018|    0.387266|
|           0|         355|   -3.989428|   -3.013450|   -0.000019|    0.324777|
|           0|         356|   -3.989478|   -3.002779|   -0.000020|    0.263227|
|           0|         357|   -3.989448|   -2.992394|   -0.000020|    0.202737|
|           0|         358|   -3.989172|   -2.982659|   -0.000019|    0.143422|
|           0|         359|   -3.988616|   -2.972733|   -0.000018|    0.085392|
|           0|         360|   -3.987803|   -2.962335|   -0.000016|    0.028756|
|           0|         361|   -3.986776|   -2.951809|   -0.000013|   -0.026377|
|           0|         362|   -3.985451|   -2.941686|   -0.000009|   -0.079894|
|           0|         363|   -3.983778|   -2.932206|   -0.000004|   -0.131680|
|           0|         364|   -3.981825|   -2.922103|    0.000003|   -0.181618|
|           0|         365|   -3.979746|   -2.911909|    0.000010|   -0.229583|
|           0|         366|   -3.977587|   -2.901572|    0.000018|   -0.275450|
|           0|         367|   -3.975343|   -2.891608|    0.000027|   -0.319089|
|           0|         368|   -3.972995|   -2.882147|    0.000037|   -0.360370|
|           0|         369|   -3.970665|   -2.872124|    0.000047|   -0.399162|
|           0|         370|   -3.968527|   -2.861993|    0.000057|   -0.435337|
|           0|         371|   -3.966592|   -2.851696|    0.000066|   -0.468767|
|           0|         372|   -3.964804|   -2.841802|    0.000075|   -0.499333|
|           0|         373|   -3.963137|   -2.832410|    0.000083|   -0.526918|
|           0|         374|   -3.961675|   -2.822523|    0.000090|   -0.551414|
|           0|         375|   -3.960553|   -2.812336|    0.000094|   -0.572724|
|           0|         376|   -3.959695|   -2.802126|    0.000097|   -0.590758|
|           0|         377|   -3.958950|   -2.792206|    0.000096|   -0.605436|
|           0|         378|   -3.958289|   -2.783063|    0.000094|   -0.616691|
|           0|         379|   -3.957780|   -2.773375|    0.000089|   -0.624464|
|           0|         380|   -3.957474|   -2.763352|    0.000081|   -0.628709|
|           0|         381|   -3.957220|   -2.753121|    0.000071|   -0.629390|
|           0|         382|   -3.956902|   -2.743163|    0.000058|   -0.626483|
|           0|         383|   -3.956487|   -2.734054|    0.000044|   -0.619971|
|           0|         384|   -3.956035|   -2.724583|    0.000029|   -0.609852|
|           0|         385|   -3.955545|   -2.714908|    0.000013|   -0.596131|
|           0|         386|   -3.954905|   -2.704811|   -0.000004|   -0.578822|
|           0|         387|   -3.954105|   -2.694951|   -0.000021|   -0.557953|
|           0|         388|   -3.953170|   -2.685802|   -0.000037|   -0.533559|
|           0|         389|   -3.952069|   -2.676779|   -0.000052|   -0.505687|
|           0|         390|   -3.950829|   -2.667555|   -0.000066|   -0.474395|
|           0|         391|   -3.949426|   -2.658192|   -0.000078|   -0.439755|
|           0|         392|   -3.947985|   -2.648730|   -0.000089|   -0.401849|
|           0|         393|   -3.946498|   -2.639922|   -0.000097|   -0.360776|
|           0|         394|   -3.944960|   -2.631227|   -0.000104|   -0.316648|
|           0|         395|   -3.943339|   -2.622666|   -0.000108|   -0.269596|
|           0|         396|   -3.941733|   -2.614197|   -0.000110|   -0.219766|
|           0|         397|   -3.940240|   -2.605712|   -0.000110|   -0.167326|
|           0|         398|   -3.938852|   -2.597109|   -0.000108|   -0.112460|
|           0|         399|   -3.937579|   -2.589136|   -0.000104|   -0.055376|
|           0|         400|   -3.936333|   -2.581041|   -0.000098|    0.003700|
|           0|         401|   -3.935145|   -2.573461|   -0.000091|    0.064519|
|           0|         402|   -3.934125|   -2.566117|   -0.000082|    0.126810|
|           0|         403|   -3.933212|   -2.558490|   -0.000072|    0.190284|
|           0|         404|   -3.932456|   -2.550977|   -0.000061|    0.254629|
|           0|         405|   -3.931697|   -2.543973|   -0.000048|    0.319518|
|           0|         406|   -3.931087|   -2.536960|   -0.000035|    0.384605|
|           0|         407|   -3.930544|   -2.530080|   -0.000022|    0.449532|
|           0|         408|   -3.929918|   -2.523991|   -0.000008|    0.513929|
|           0|         409|   -3.929237|   -2.518249|    0.000006|    0.577420|
|           0|         410|   -3.928853|   -2.512547|    0.000020|    0.639624|
|           0|         411|   -3.928408|   -2.506364|    0.000034|    0.700164|
|           0|         412|   -3.927969|   -2.500796|    0.000047|    0.758665|
|           0|         413|   -3.927616|   -2.495595|    0.000060|    0.814765|
|           0|         414|   -3.927145|   -2.490671|    0.000071|    0.868118|
|           0|         415|   -3.927204|   -2.486148|    0.000081|    0.918398|
|           0|         416|   -3.927604|   -2.481894|    0.000089|    0.965304|
|           0|         417|   -3.927943|   -2.477766|    0.000095|    1.008567|
|           0|         418|   -3.928656|   -2.473833|    0.000098|    1.047954|
|           0|         419|   -3.929950|   -2.470010|    0.000100|    1.083271|
|           0|         420|   -3.932119|   -2.466360|    0.000098|    1.114366|
|           0|         421|   -3.934544|   -2.463029|    0.000095|    1.141133|
|           0|         422|   -3.937523|   -2.459818|    0.000088|    1.163514|
|           0|         423|   -3.941053|   -2.457042|    0.000079|    1.181500|
|           0|         424|   -3.945024|   -2.454654|    0.000068|    1.195129|
|           0|         425|   -3.949998|   -2.452442|    0.000055|    1.204488|
|           0|         426|   -3.955530|   -2.450393|    0.000041|    1.209710|
|           0|         427|   -3.961689|   -2.448593|    0.000025|    1.210970|
|           0|         428|   -3.968555|   -2.446926|    0.000008|    1.208482|
|           0|         429|   -3.975777|   -2.445473|   -0.000008|    1.202492|
|           0|         430|   -3.983318|   -2.444032|   -0.000025|    1.193277|
|           0|         431|   -3.991517|   -2.442722|   -0.000040|    1.181134|
|           0|         432|   -4.000248|   -2.441769|   -0.000055|    1.166372|
|           0|         433|   -4.009049|   -2.441103|   -0.000067|    1.149312|
|           0|         434|   -4.018295|   -2.440669|   -0.000078|    1.130273|
|           0|         435|   -4.027613|   -2.440314|   -0.000086|    1.109567|
|           0|         436|   -4.036791|   -2.439963|   -0.000092|    1.087493|
|           0|         437|   -4.045743|   -2.439629|   -0.000095|    1.064330|
|           0|         438|   -4.054877|   -2.439218|   -0.000095|    1.040333|
|           0|         439|   -4.063956|   -2.438840|   -0.000093|    1.015727|
|           0|         440|   -4.072524|   -2.438523|   -0.000089|    0.990705|
|           0|         441|   -4.080803|   -2.438232|   -0.000082|    0.965425|
|           0|         442|   -4.088688|   -2.437741|   -0.000074|    0.940012|
|           0|         443|   -4.095987|   -2.436983|   -0.000065|    0.914552|
|           0|         444|   -4.102831|   -2.436107|   -0.000054|    0.889100|
|           0|         445|   -4.109405|   -2.434985|   -0.000043|    0.863681|
|           0|         446|   -4.115858|   -2.433626|   -0.000031|    0.838291|
|           0|         447|   -4.122090|   -2.431945|   -0.000020|    0.812904|
|           0|         448|   -4.127942|   -2.430027|   -0.000009|    0.787475|
|           0|         449|   -4.133480|   -2.427816|    0.000002|    0.761946|
|           0|         450|   -4.138709|   -2.425376|    0.000011|    0.736254|
|           0|         451|   -4.143737|   -2.422706|    0.000020|    0.710333|
|           0|         452|   -4.148597|   -2.419875|    0.000027|    0.684118|
|           0|         453|   -4.153172|   -2.416783|    0.000033|    0.657557|
|           0|         454|   -4.157461|   -2.413332|    0.000038|    0.630609|
|           0|         455|   -4.161171|   -2.409566|    0.000042|    0.603248|
|           0|         456|   -4.164307|   -2.405508|    0.000045|    0.575469|
|           0|         457|   -4.167025|   -2.401212|    0.000047|    0.547291|
|           0|         458|   -4.169447|   -2.396765|    0.000048|    0.518753|
|           0|         459|   -4.171625|   -2.392087|    0.000049|    0.489921|
|           0|         460|   -4.173532|   -2.387236|    0.000049|    0.460884|
|           0|         461|   -4.175252|   -2.382267|    0.000048|    0.431751|
|           0|         462|   -4.176824|   -2.377181|    0.000047|    0.402656|
|           0|         463|   -4.178263|   -2.372096|    0.000046|    0.373749|
|           0|         464|   -4.179668|   -2.366979|    0.000043|    0.345194|
|           0|         465|   -4.181054|   -2.361862|    0.000041|    0.317168|
|           0|         466|   -4.182403|   -2.356732|    0.000038|    0.289856|
|           0|         467|   -4.183667|   -2.351588|    0.000034|    0.263444|
|           0|         468|   -4.184824|   -2.346543|    0.000029|    0.238117|
|           0|         469|   -4.186021|   -2.341633|    0.000024|    0.214055|
|           0|         470|   -4.187178|   -2.336817|    0.000018|    0.191428|
|           0|         471|   -4.188265|   -2.332138|    0.000011|    0.170388|
|           0|         472|   -4.189242|   -2.327553|    0.000004|    0.151072|
|           0|         473|   -4.190105|   -2.323070|   -0.000004|    0.133594|
|           0|         474|   -4.190835|   -2.318716|   -0.000012|    0.118041|
|           0|         475|   -4.191426|   -2.314544|   -0.000019|    0.104475|
|           0|         476|   -4.191894|   -2.310490|   -0.000027|    0.092929|
|           0|         477|   -4.192283|   -2.306571|   -0.000033|    0.083404|
|           0|         478|   -4.192541|   -2.302803|   -0.000039|    0.075875|
|           0|         479|   -4.192676|   -2.299153|   -0.000044|    0.070284|
|           0|         480|   -4.192699|   -2.295599|   -0.000047|    0.066548|
|           0|         481|   -4.192583|   -2.292206|   -0.000049|    0.064558|
|           0|         482|   -4.192330|   -2.289003|   -0.000049|    0.064183|
|           0|         483|   -4.191911|   -2.285913|   -0.000047|    0.065271|
|           0|         484|   -4.191359|   -2.282942|   -0.000043|    0.067657|
|           0|         485|   -4.190717|   -2.280091|   -0.000038|    0.071163|
|           0|         486|   -4.189975|   -2.277318|   -0.000032|    0.075603|
|           0|         487|   -4.189119|   -2.274622|   -0.000025|    0.080792|
|           0|         488|   -4.188150|   -2.272042|   -0.000017|    0.086541|
|           0|         489|   -4.187077|   -2.269546|   -0.000008|    0.092669|
|           0|         490|   -4.185936|   -2.267150|    0.000001|    0.099003|
|           0|         491|   -4.184761|   -2.264841|    0.000009|    0.105380|
|           0|         492|   -4.183604|   -2.262584|    0.000017|    0.111649|
|           0|         493|   -4.182472|   -2.260370|    0.000024|    0.117678|
|           0|         494|   -4.181360|   -2.258190|    0.000029|    0.123348|
|           0|         495|   -4.180271|   -2.256061|    0.000034|    0.128557|
|           0|         496|   -4.179242|   -2.253986|    0.000037|    0.133222|
|           0|         497|   -4.178304|   -2.251954|    0.000038|    0.137274|
|           0|         498|   -4.177470|   -2.249941|    0.000038|    0.140662|
|           0|         499|   -4.176767|   -2.247923|    0.000036|    0.143351|
|           0|         500|   -4.176203|   -2.245908|    0.000033|    0.145317|
+-----------------------------------------------------------------------+
|        File Writing Summary       |              Filename             |
+-----------------------------------------------------------------------+
|SU2 binary restart                 |restart_flow.dat                   |
|SU2 ASCII restart                  |restart_flow.csv                   |
|Paraview                           |flow.vtu                           |
|Paraview surface                   |surface_flow.vtu                   |
+-----------------------------------------------------------------------+
+-----------------------------------------------------------------------------+
|   Time_Iter|  Inner_Iter|    rms[Rho]|     rms[nu]|          CL|          CD|
+-----------------------------------------------------------------------------+
|           0|         501|   -4.175767|   -2.243922|    0.000028|    0.146551|
|           0|         502|   -4.175458|   -2.241957|    0.000023|    0.147056|
|           0|         503|   -4.175279|   -2.239979|    0.000016|    0.146846|
|           0|         504|   -4.175226|   -2.237987|    0.000009|    0.145944|
|           0|         505|   -4.175300|   -2.235953|    0.000001|    0.144385|
|           0|         506|   -4.175529|   -2.233931|   -0.000007|    0.142211|
|           0|         507|   -4.175897|   -2.231941|   -0.000015|    0.139475|
|           0|         508|   -4.176391|   -2.229950|   -0.000023|    0.136238|
|           0|         509|   -4.176994|   -2.227971|   -0.000030|    0.132572|
|           0|         510|   -4.177679|   -2.225996|   -0.000037|    0.128559|
|           0|         511|   -4.178438|   -2.223984|   -0.000043|    0.124289|
|           0|         512|   -4.179295|   -2.221974|   -0.000048|    0.119866|
|           0|         513|   -4.180265|   -2.219968|   -0.000053|    0.115403|
|           0|         514|   -4.181318|   -2.217938|   -0.000056|    0.111023|
|           0|         515|   -4.182449|   -2.215894|   -0.000059|    0.106860|
|           0|         516|   -4.183651|   -2.213881|   -0.000060|    0.103058|
|           0|         517|   -4.184900|   -2.211878|   -0.000061|    0.099768|
|           0|         518|   -4.186171|   -2.209871|   -0.000061|    0.097149|
|           0|         519|   -4.187479|   -2.207857|   -0.000060|    0.095364|
|           0|         520|   -4.188814|   -2.205831|   -0.000058|    0.094577|
|           0|         521|   -4.190225|   -2.203766|   -0.000055|    0.094954|
|           0|         522|   -4.191709|   -2.201678|   -0.000051|    0.096655|
|           0|         523|   -4.193231|   -2.199623|   -0.000046|    0.099835|
|           0|         524|   -4.194811|   -2.197555|   -0.000040|    0.104638|
|           0|         525|   -4.196426|   -2.195524|   -0.000034|    0.111196|
|           0|         526|   -4.198060|   -2.193475|   -0.000026|    0.119622|
|           0|         527|   -4.199723|   -2.191407|   -0.000018|    0.130012|
|           0|         528|   -4.201397|   -2.189332|   -0.000008|    0.142438|
|           0|         529|   -4.203058|   -2.187248|    0.000002|    0.156949|
|           0|         530|   -4.204694|   -2.185177|    0.000013|    0.173564|
|           0|         531|   -4.206337|   -2.183103|    0.000024|    0.192278|
|           0|         532|   -4.207954|   -2.181042|    0.000036|    0.213052|
|           0|         533|   -4.209570|   -2.178996|    0.000048|    0.235819|
|           0|         534|   -4.211171|   -2.176948|    0.000059|    0.260483|
|           0|         535|   -4.212741|   -2.174906|    0.000070|    0.286916|
|           0|         536|   -4.214298|   -2.172867|    0.000079|    0.314961|
|           0|         537|   -4.215829|   -2.170827|    0.000088|    0.344436|
|           0|         538|   -4.217291|   -2.168790|    0.000095|    0.375133|
|           0|         539|   -4.218690|   -2.166772|    0.000099|    0.406821|
|           0|         540|   -4.220004|   -2.164781|    0.000102|    0.439250|
|           0|         541|   -4.221252|   -2.162806|    0.000103|    0.472156|
|           0|         542|   -4.222455|   -2.160844|    0.000101|    0.505262|
|           0|         543|   -4.223582|   -2.158885|    0.000097|    0.538284|
|           0|         544|   -4.224609|   -2.156949|    0.000091|    0.570938|
|           0|         545|   -4.225550|   -2.155028|    0.000083|    0.602939|
|           0|         546|   -4.226386|   -2.153104|    0.000072|    0.634012|
|           0|         547|   -4.227102|   -2.151190|    0.000061|    0.663891|
|           0|         548|   -4.227725|   -2.149288|    0.000048|    0.692328|
|           0|         549|   -4.228286|   -2.147405|    0.000034|    0.719094|
|           0|         550|   -4.228787|   -2.145523|    0.000019|    0.743983|
|           0|         551|   -4.229247|   -2.143664|    0.000005|    0.766816|
|           0|         552|   -4.229663|   -2.141853|   -0.000010|    0.787442|
|           0|         553|   -4.229986|   -2.140054|   -0.000024|    0.805740|
|           0|         554|   -4.230237|   -2.138257|   -0.000036|    0.821619|
|           0|         555|   -4.230438|   -2.136463|   -0.000048|    0.835020|
|           0|         556|   -4.230565|   -2.134664|   -0.000059|    0.845913|
|           0|         557|   -4.230600|   -2.132865|   -0.000067|    0.854297|
|           0|         558|   -4.230561|   -2.131060|   -0.000074|    0.860194|
|           0|         559|   -4.230476|   -2.129268|   -0.000080|    0.863655|
|           0|         560|   -4.230356|   -2.127512|   -0.000083|    0.864746|
|           0|         561|   -4.230135|   -2.125760|   -0.000085|    0.863553|
|           0|         562|   -4.229867|   -2.124003|   -0.000085|    0.860172|
|           0|         563|   -4.229551|   -2.122256|   -0.000084|    0.854712|
|           0|         564|   -4.229167|   -2.120515|   -0.000081|    0.847283|
|           0|         565|   -4.228724|   -2.118758|   -0.000077|    0.838001|
|           0|         566|   -4.228241|   -2.116986|   -0.000071|    0.826977|
|           0|         567|   -4.227731|   -2.115237|   -0.000065|    0.814319|
|           0|         568|   -4.227180|   -2.113490|   -0.000058|    0.800129|
|           0|         569|   -4.226606|   -2.111751|   -0.000050|    0.784500|
|           0|         570|   -4.226009|   -2.110006|   -0.000042|    0.767514|
|           0|         571|   -4.225409|   -2.108276|   -0.000034|    0.749245|
|           0|         572|   -4.224784|   -2.106554|   -0.000026|    0.729755|
|           0|         573|   -4.224146|   -2.104811|   -0.000018|    0.709097|
|           0|         574|   -4.223475|   -2.103074|   -0.000011|    0.687316|
|           0|         575|   -4.222794|   -2.101340|   -0.000005|    0.664450|
|           0|         576|   -4.222140|   -2.099611|    0.000001|    0.640536|
|           0|         577|   -4.221480|   -2.097894|    0.000006|    0.615605|
|           0|         578|   -4.220837|   -2.096179|    0.000010|    0.589694|
|           0|         579|   -4.220212|   -2.094474|    0.000013|    0.562841|
|           0|         580|   -4.219622|   -2.092779|    0.000015|    0.535094|
|           0|         581|   -4.219047|   -2.091078|    0.000016|    0.506509|
|           0|         582|   -4.218516|   -2.089388|    0.000016|    0.477156|
|           0|         583|   -4.218050|   -2.087700|    0.000015|    0.447120|
|           0|         584|   -4.217645|   -2.086017|    0.000013|    0.416501|
|           0|         585|   -4.217280|   -2.084343|    0.000011|    0.385417|
|           0|         586|   -4.216966|   -2.082679|    0.000008|    0.354003|
|           0|         587|   -4.216734|   -2.081026|    0.000005|    0.322413|
|           0|         588|   -4.216572|   -2.079385|    0.000003|    0.290816|
|           0|         589|   -4.216487|   -2.077761|    0.000000|    0.259394|
|           0|         590|   -4.216482|   -2.076156|   -0.000002|    0.228343|
|           0|         591|   -4.216555|   -2.074565|   -0.000004|    0.197870|
|           0|         592|   -4.216725|   -2.072976|   -0.000006|    0.168184|
|           0|         593|   -4.216989|   -2.071397|   -0.000007|    0.139500|
|           0|         594|   -4.217326|   -2.069845|   -0.000007|    0.112030|
|           0|         595|   -4.217751|   -2.068306|   -0.000007|    0.085982|
|           0|         596|   -4.218256|   -2.066786|   -0.000006|    0.061554|
|           0|         597|   -4.218824|   -2.065284|   -0.000005|    0.038930|
|           0|         598|   -4.219474|   -2.063815|   -0.000003|    0.018281|
|           0|         599|   -4.220228|   -2.062352|   -0.000002|   -0.000244|
|           0|         600|   -4.221086|   -2.060899|   -0.000000|   -0.016517|
|           0|         601|   -4.222006|   -2.059462|    0.000001|   -0.030436|
|           0|         602|   -4.223001|   -2.058034|    0.000002|   -0.041921|
|           0|         603|   -4.224084|   -2.056627|    0.000002|   -0.050921|
|           0|         604|   -4.225229|   -2.055232|    0.000002|   -0.057413|
|           0|         605|   -4.226419|   -2.053858|    0.000001|   -0.061397|
|           0|         606|   -4.227651|   -2.052505|   -0.000001|   -0.062903|
|           0|         607|   -4.228906|   -2.051166|   -0.000003|   -0.061982|
|           0|         608|   -4.230196|   -2.049838|   -0.000007|   -0.058711|
|           0|         609|   -4.231531|   -2.048524|   -0.000011|   -0.053186|
|           0|         610|   -4.232867|   -2.047221|   -0.000015|   -0.045522|
|           0|         611|   -4.234199|   -2.045932|   -0.000020|   -0.035849|
|           0|         612|   -4.235549|   -2.044655|   -0.000025|   -0.024311|
|           0|         613|   -4.236886|   -2.043380|   -0.000031|   -0.011063|
|           0|         614|   -4.238223|   -2.042113|   -0.000035|    0.003733|
|           0|         615|   -4.239577|   -2.040860|   -0.000039|    0.019910|
|           0|         616|   -4.240916|   -2.039626|   -0.000042|    0.037299|
|           0|         617|   -4.242234|   -2.038400|   -0.000044|    0.055729|
|           0|         618|   -4.243564|   -2.037185|   -0.000045|    0.075031|
|           0|         619|   -4.244908|   -2.035979|   -0.000044|    0.095042|
|           0|         620|   -4.246211|   -2.034771|   -0.000042|    0.115600|
|           0|         621|   -4.247511|   -2.033557|   -0.000038|    0.136553|
|           0|         622|   -4.248830|   -2.032345|   -0.000031|    0.157755|
|           0|         623|   -4.250150|   -2.031144|   -0.000024|    0.179069|
|           0|         624|   -4.251496|   -2.029952|   -0.000014|    0.200366|
|           0|         625|   -4.252853|   -2.028761|   -0.000003|    0.221526|
|           0|         626|   -4.254227|   -2.027571|    0.000010|    0.242440|
|           0|         627|   -4.255622|   -2.026376|    0.000024|    0.263008|
|           0|         628|   -4.257033|   -2.025171|    0.000039|    0.283139|
|           0|         629|   -4.258449|   -2.023963|    0.000054|    0.302752|
|           0|         630|   -4.259846|   -2.022753|    0.000069|    0.321773|
|           0|         631|   -4.261229|   -2.021545|    0.000084|    0.340139|
|           0|         632|   -4.262587|   -2.020340|    0.000099|    0.357795|
|           0|         633|   -4.263916|   -2.019143|    0.000113|    0.374691|
|           0|         634|   -4.265198|   -2.017940|    0.000125|    0.390787|
|           0|         635|   -4.266415|   -2.016732|    0.000136|    0.406050|
|           0|         636|   -4.267553|   -2.015516|    0.000145|    0.420450|
|           0|         637|   -4.268600|   -2.014297|    0.000151|    0.433967|
|           0|         638|   -4.269551|   -2.013074|    0.000155|    0.446581|
|           0|         639|   -4.270398|   -2.011857|    0.000157|    0.458283|
|           0|         640|   -4.271135|   -2.010644|    0.000155|    0.469061|
|           0|         641|   -4.271745|   -2.009438|    0.000151|    0.478913|
|           0|         642|   -4.272236|   -2.008232|    0.000144|    0.487836|
|           0|         643|   -4.272611|   -2.007023|    0.000135|    0.495831|
|           0|         644|   -4.272866|   -2.005809|    0.000123|    0.502900|
|           0|         645|   -4.272998|   -2.004592|    0.000109|    0.509048|
|           0|         646|   -4.273027|   -2.003364|    0.000093|    0.514281|
|           0|         647|   -4.272972|   -2.002134|    0.000075|    0.518605|
|           0|         648|   -4.272828|   -2.000906|    0.000057|    0.522028|
|           0|         649|   -4.272594|   -1.999681|    0.000037|    0.524558|
|           0|         650|   -4.272313|   -1.998450|    0.000016|    0.526202|
|           0|         651|   -4.271994|   -1.997217|   -0.000004|    0.526970|
|           0|         652|   -4.271631|   -1.995980|   -0.000025|    0.526870|
|           0|         653|   -4.271205|   -1.994737|   -0.000045|    0.525911|
|           0|         654|   -4.270740|   -1.993481|   -0.000065|    0.524104|
|           0|         655|   -4.270249|   -1.992216|   -0.000083|    0.521460|
|           0|         656|   -4.269741|   -1.990946|   -0.000101|    0.517990|
|           0|         657|   -4.269224|   -1.989670|   -0.000117|    0.513709|
|           0|         658|   -4.268675|   -1.988389|   -0.000131|    0.508632|
|           0|         659|   -4.268094|   -1.987097|   -0.000144|    0.502777|
|           0|         660|   -4.267503|   -1.985789|   -0.000155|    0.496167|
|           0|         661|   -4.266891|   -1.984465|   -0.000164|    0.488826|
|           0|         662|   -4.266258|   -1.983137|   -0.000172|    0.480781|
|           0|         663|   -4.265607|   -1.981795|   -0.000177|    0.472067|
|           0|         664|   -4.264932|   -1.980438|   -0.000181|    0.462721|
|           0|         665|   -4.264231|   -1.979076|   -0.000182|    0.452784|
|           0|         666|   -4.263511|   -1.977697|   -0.000181|    0.442303|
|           0|         667|   -4.262776|   -1.976296|   -0.000179|    0.431330|
|           0|         668|   -4.262032|   -1.974878|   -0.000174|    0.419922|
|           0|         669|   -4.261295|   -1.973439|   -0.000167|    0.408138|
|           0|         670|   -4.260566|   -1.971981|   -0.000158|    0.396045|
|           0|         671|   -4.259851|   -1.970512|   -0.000148|    0.383709|
|           0|         672|   -4.259169|   -1.969025|   -0.000136|    0.371204|
|           0|         673|   -4.258526|   -1.967523|   -0.000122|    0.358602|
|           0|         674|   -4.257928|   -1.966008|   -0.000107|    0.345981|
|           0|         675|   -4.257387|   -1.964473|   -0.000090|    0.333416|
|           0|         676|   -4.256917|   -1.962919|   -0.000073|    0.320986|
|           0|         677|   -4.256523|   -1.961343|   -0.000056|    0.308767|
|           0|         678|   -4.256219|   -1.959748|   -0.000038|    0.296836|
|           0|         679|   -4.256004|   -1.958127|   -0.000020|    0.285267|
|           0|         680|   -4.255876|   -1.956487|   -0.000003|    0.274132|
|           0|         681|   -4.255845|   -1.954829|    0.000014|    0.263501|
|           0|         682|   -4.255933|   -1.953153|    0.000029|    0.253439|
|           0|         683|   -4.256120|   -1.951460|    0.000044|    0.244009|
|           0|         684|   -4.256396|   -1.949748|    0.000056|    0.235269|
|           0|         685|   -4.256784|   -1.948021|    0.000067|    0.227271|
|           0|         686|   -4.257283|   -1.946275|    0.000076|    0.220064|
|           0|         687|   -4.257876|   -1.944504|    0.000084|    0.213691|
|           0|         688|   -4.258555|   -1.942713|    0.000089|    0.208189|
|           0|         689|   -4.259329|   -1.940901|    0.000092|    0.203591|
|           0|         690|   -4.260188|   -1.939071|    0.000093|    0.199921|
|           0|         691|   -4.261126|   -1.937226|    0.000093|    0.197200|
|           0|         692|   -4.262154|   -1.935366|    0.000091|    0.195440|
|           0|         693|   -4.263259|   -1.933489|    0.000088|    0.194648|
|           0|         694|   -4.264412|   -1.931594|    0.000083|    0.194823|
|           0|         695|   -4.265634|   -1.929680|    0.000078|    0.195957|
|           0|         696|   -4.266936|   -1.927751|    0.000072|    0.198036|
|           0|         697|   -4.268294|   -1.925804|    0.000065|    0.201037|
|           0|         698|   -4.269688|   -1.923837|    0.000058|    0.204931|
|           0|         699|   -4.271138|   -1.921854|    0.000051|    0.209680|
|           0|         700|   -4.272643|   -1.919855|    0.000045|    0.215241|
|           0|         701|   -4.274173|   -1.917841|    0.000039|    0.221562|
|           0|         702|   -4.275747|   -1.915814|    0.000033|    0.228585|
|           0|         703|   -4.277375|   -1.913771|    0.000028|    0.236246|
|           0|         704|   -4.279026|   -1.911716|    0.000024|    0.244474|
|           0|         705|   -4.280695|   -1.909645|    0.000020|    0.253193|
|           0|         706|   -4.282388|   -1.907560|    0.000018|    0.262324|
|           0|         707|   -4.284099|   -1.905464|    0.000016|    0.271783|
|           0|         708|   -4.285808|   -1.903359|    0.000015|    0.281485|
|           0|         709|   -4.287522|   -1.901237|    0.000016|    0.291342|
|           0|         710|   -4.289241|   -1.899097|    0.000017|    0.301265|
|           0|         711|   -4.290949|   -1.896947|    0.000019|    0.311168|
|           0|         712|   -4.292641|   -1.894787|    0.000021|    0.320964|
|           0|         713|   -4.294319|   -1.892615|    0.000025|    0.330571|
|           0|         714|   -4.295978|   -1.890436|    0.000029|    0.339908|
|           0|         715|   -4.297609|   -1.888252|    0.000033|    0.348900|
|           0|         716|   -4.299218|   -1.886054|    0.000037|    0.357478|
|           0|         717|   -4.300798|   -1.883846|    0.000042|    0.365577|
|           0|         718|   -4.302339|   -1.881631|    0.000046|    0.373140|
|           0|         719|   -4.303840|   -1.879410|    0.000050|    0.380116|
|           0|         720|   -4.305303|   -1.877183|    0.000053|    0.386460|
|           0|         721|   -4.306725|   -1.874946|    0.000055|    0.392137|
|           0|         722|   -4.308110|   -1.872707|    0.000057|    0.397116|
|           0|         723|   -4.309459|   -1.870463|    0.000057|    0.401375|
|           0|         724|   -4.310766|   -1.868211|    0.000055|    0.404897|
|           0|         725|   -4.312026|   -1.865952|    0.000052|    0.407672|
|           0|         726|   -4.313247|   -1.863686|    0.000046|    0.409697|
|           0|         727|   -4.314426|   -1.861419|    0.000039|    0.410972|
|           0|         728|   -4.315546|   -1.859154|    0.000029|    0.411505|
|           0|         729|   -4.316611|   -1.856890|    0.000017|    0.411305|
|           0|         730|   -4.317635|   -1.854623|    0.000003|    0.410387|
|           0|         731|   -4.318617|   -1.852354|   -0.000014|    0.408770|
|           0|         732|   -4.319548|   -1.850079|   -0.000032|    0.406475|
|           0|         733|   -4.320417|   -1.847800|   -0.000053|    0.403525|
|           0|         734|   -4.321225|   -1.845522|   -0.000075|    0.399950|
|           0|         735|   -4.321972|   -1.843245|   -0.000097|    0.395776|
|           0|         736|   -4.322662|   -1.840971|   -0.000121|    0.391038|
|           0|         737|   -4.323294|   -1.838701|   -0.000145|    0.385768|
|           0|         738|   -4.323858|   -1.836431|   -0.000168|    0.380005|
|           0|         739|   -4.324356|   -1.834159|   -0.000190|    0.373788|
|           0|         740|   -4.324794|   -1.831887|   -0.000210|    0.367159|
|           0|         741|   -4.325170|   -1.829618|   -0.000228|    0.360164|
|           0|         742|   -4.325483|   -1.827350|   -0.000243|    0.352851|
|           0|         743|   -4.325738|   -1.825088|   -0.000253|    0.345272|
|           0|         744|   -4.325938|   -1.822833|   -0.000259|    0.337482|
|           0|         745|   -4.326075|   -1.820586|   -0.000261|    0.329538|
|           0|         746|   -4.326158|   -1.818340|   -0.000257|    0.321502|
|           0|         747|   -4.326199|   -1.816094|   -0.000247|    0.313435|
|           0|         748|   -4.326203|   -1.813851|   -0.000232|    0.305404|
|           0|         749|   -4.326168|   -1.811611|   -0.000211|    0.297476|
|           0|         750|   -4.326097|   -1.809377|   -0.000185|    0.289718|
|           0|         751|   -4.325993|   -1.807150|   -0.000153|    0.282200|
|           0|         752|   -4.325857|   -1.804931|   -0.000117|    0.274988|
|           0|         753|   -4.325688|   -1.802718|   -0.000078|    0.268149|
|           0|         754|   -4.325495|   -1.800511|   -0.000035|    0.261746|
|           0|         755|   -4.325280|   -1.798309|    0.000010|    0.255841|
|           0|         756|   -4.325051|   -1.796110|    0.000056|    0.250489|
|           0|         757|   -4.324819|   -1.793917|    0.000103|    0.245741|
|           0|         758|   -4.324583|   -1.791728|    0.000148|    0.241641|
|           0|         759|   -4.324341|   -1.789543|    0.000192|    0.238228|
|           0|         760|   -4.324098|   -1.787366|    0.000233|    0.235531|
|           0|         761|   -4.323856|   -1.785194|    0.000270|    0.233573|
|           0|         762|   -4.323618|   -1.783028|    0.000303|    0.232366|
|           0|         763|   -4.323391|   -1.780867|    0.000331|    0.231916|
|           0|         764|   -4.323187|   -1.778713|    0.000353|    0.232218|
|           0|         765|   -4.323009|   -1.776563|    0.000369|    0.233260|
|           0|         766|   -4.322858|   -1.774418|    0.000379|    0.235020|
|           0|         767|   -4.322744|   -1.772279|    0.000382|    0.237468|
|           0|         768|   -4.322671|   -1.770146|    0.000379|    0.240568|
|           0|         769|   -4.322640|   -1.768018|    0.000370|    0.244276|
|           0|         770|   -4.322656|   -1.765896|    0.000355|    0.248541|
|           0|         771|   -4.322721|   -1.763778|    0.000335|    0.253307|
|           0|         772|   -4.322838|   -1.761664|    0.000310|    0.258516|
|           0|         773|   -4.323012|   -1.759558|    0.000280|    0.264103|
|           0|         774|   -4.323252|   -1.757459|    0.000246|    0.270004|
|           0|         775|   -4.323564|   -1.755365|    0.000209|    0.276150|
|           0|         776|   -4.323944|   -1.753279|    0.000169|    0.282475|
|           0|         777|   -4.324394|   -1.751204|    0.000128|    0.288910|
|           0|         778|   -4.324917|   -1.749135|    0.000085|    0.295390|
|           0|         779|   -4.325507|   -1.747069|    0.000042|    0.301851|
|           0|         780|   -4.326169|   -1.745007|   -0.000001|    0.308231|
|           0|         781|   -4.326907|   -1.742952|   -0.000043|    0.314473|
|           0|         782|   -4.327724|   -1.740905|   -0.000085|    0.320524|
|           0|         783|   -4.328620|   -1.738866|   -0.000124|    0.326334|
|           0|         784|   -4.329588|   -1.736837|   -0.000161|    0.331860|
|           0|         785|   -4.330626|   -1.734820|   -0.000196|    0.337064|
|           0|         786|   -4.331725|   -1.732813|   -0.000227|    0.341913|
|           0|         787|   -4.332883|   -1.730818|   -0.000255|    0.346381|
|           0|         788|   -4.334096|   -1.728830|   -0.000280|    0.350449|
|           0|         789|   -4.335362|   -1.726847|   -0.000301|    0.354101|
|           0|         790|   -4.336682|   -1.724870|   -0.000318|    0.357330|
|           0|         791|   -4.338045|   -1.722905|   -0.000331|    0.360135|
|           0|         792|   -4.339448|   -1.720951|   -0.000339|    0.362520|
|           0|         793|   -4.340889|   -1.719008|   -0.000344|    0.364495|
|           0|         794|   -4.342365|   -1.717079|   -0.000345|    0.366075|
|           0|         795|   -4.343863|   -1.715164|   -0.000342|    0.367279|
|           0|         796|   -4.345372|   -1.713261|   -0.000336|    0.368132|
|           0|         797|   -4.346893|   -1.711366|   -0.000326|    0.368661|
|           0|         798|   -4.348435|   -1.709479|   -0.000312|    0.368897|
|           0|         799|   -4.349996|   -1.707601|   -0.000295|    0.368872|
|           0|         800|   -4.351574|   -1.705735|   -0.000276|    0.368620|
|           0|         801|   -4.353167|   -1.703884|   -0.000253|    0.368174|
|           0|         802|   -4.354773|   -1.702045|   -0.000228|    0.367570|
|           0|         803|   -4.356381|   -1.700216|   -0.000200|    0.366838|
|           0|         804|   -4.357992|   -1.698401|   -0.000170|    0.366010|
|           0|         805|   -4.359615|   -1.696597|   -0.000138|    0.365115|
|           0|         806|   -4.361248|   -1.694803|   -0.000103|    0.364176|
|           0|         807|   -4.362879|   -1.693016|   -0.000067|    0.363215|
|           0|         808|   -4.364508|   -1.691237|   -0.000029|    0.362249|
|           0|         809|   -4.366135|   -1.689469|    0.000010|    0.361290|
|           0|         810|   -4.367741|   -1.687714|    0.000050|    0.360349|
|           0|         811|   -4.369328|   -1.685970|    0.000092|    0.359428|
[...]
|           0|        9772|   -7.558176|   -2.725426|    0.000000|    0.458326|
|           0|        9773|   -7.558335|   -2.725726|    0.000000|    0.458326|
|           0|        9774|   -7.558494|   -2.726025|    0.000000|    0.458325|
|           0|        9775|   -7.558652|   -2.726324|    0.000000|    0.458324|
|           0|        9776|   -7.558811|   -2.726623|    0.000000|    0.458324|
|           0|        9777|   -7.558969|   -2.726922|    0.000000|    0.458323|
|           0|        9778|   -7.559127|   -2.727220|    0.000000|    0.458323|
|           0|        9779|   -7.559285|   -2.727518|    0.000000|    0.458322|
|           0|        9780|   -7.559443|   -2.727816|    0.000000|    0.458321|
|           0|        9781|   -7.559601|   -2.728113|    0.000000|    0.458321|
|           0|        9782|   -7.559758|   -2.728411|    0.000000|    0.458320|
|           0|        9783|   -7.559915|   -2.728708|    0.000000|    0.458319|
|           0|        9784|   -7.560073|   -2.729004|    0.000000|    0.458319|
|           0|        9785|   -7.560230|   -2.729301|    0.000000|    0.458318|
|           0|        9786|   -7.560387|   -2.729597|    0.000000|    0.458318|
|           0|        9787|   -7.560543|   -2.729893|    0.000000|    0.458317|
|           0|        9788|   -7.560700|   -2.730188|    0.000000|    0.458316|
|           0|        9789|   -7.560856|   -2.730484|    0.000000|    0.458316|
|           0|        9790|   -7.561012|   -2.730779|    0.000000|    0.458315|
|           0|        9791|   -7.561168|   -2.731074|    0.000000|    0.458314|
|           0|        9792|   -7.561324|   -2.731369|    0.000000|    0.458314|
|           0|        9793|   -7.561480|   -2.731663|    0.000000|    0.458313|
|           0|        9794|   -7.561636|   -2.731957|    0.000000|    0.458313|
|           0|        9795|   -7.561791|   -2.732251|    0.000000|    0.458312|
|           0|        9796|   -7.561946|   -2.732545|    0.000000|    0.458311|
|           0|        9797|   -7.562101|   -2.732838|    0.000000|    0.458311|
|           0|        9798|   -7.562256|   -2.733131|    0.000000|    0.458310|
|           0|        9799|   -7.562411|   -2.733424|    0.000000|    0.458310|
|           0|        9800|   -7.562566|   -2.733716|    0.000000|    0.458309|
|           0|        9801|   -7.562720|   -2.734009|    0.000000|    0.458308|
|           0|        9802|   -7.562874|   -2.734301|    0.000000|    0.458308|
|           0|        9803|   -7.563029|   -2.734593|    0.000000|    0.458307|
|           0|        9804|   -7.563183|   -2.734884|    0.000000|    0.458306|
|           0|        9805|   -7.563336|   -2.735175|    0.000000|    0.458306|
|           0|        9806|   -7.563490|   -2.735466|    0.000000|    0.458305|
|           0|        9807|   -7.563643|   -2.735757|    0.000000|    0.458305|
|           0|        9808|   -7.563797|   -2.736048|    0.000000|    0.458304|
|           0|        9809|   -7.563950|   -2.736338|    0.000000|    0.458303|
|           0|        9810|   -7.564103|   -2.736628|    0.000000|    0.458303|
|           0|        9811|   -7.564255|   -2.736918|    0.000000|    0.458302|
|           0|        9812|   -7.564408|   -2.737207|    0.000000|    0.458301|
|           0|        9813|   -7.564561|   -2.737496|    0.000000|    0.458301|
|           0|        9814|   -7.564713|   -2.737786|    0.000000|    0.458300|
|           0|        9815|   -7.564865|   -2.738074|    0.000000|    0.458300|
|           0|        9816|   -7.565017|   -2.738363|    0.000000|    0.458299|
|           0|        9817|   -7.565169|   -2.738651|    0.000000|    0.458298|
|           0|        9818|   -7.565320|   -2.738939|    0.000000|    0.458298|
|           0|        9819|   -7.565472|   -2.739227|    0.000000|    0.458297|
|           0|        9820|   -7.565623|   -2.739514|    0.000000|    0.458297|
|           0|        9821|   -7.565774|   -2.739801|    0.000000|    0.458296|
|           0|        9822|   -7.565925|   -2.740088|    0.000000|    0.458295|
|           0|        9823|   -7.566076|   -2.740375|    0.000000|    0.458295|
|           0|        9824|   -7.566226|   -2.740662|    0.000000|    0.458294|
|           0|        9825|   -7.566377|   -2.740948|    0.000000|    0.458293|
|           0|        9826|   -7.566527|   -2.741234|    0.000000|    0.458293|
|           0|        9827|   -7.566677|   -2.741520|    0.000000|    0.458292|
|           0|        9828|   -7.566827|   -2.741805|    0.000000|    0.458292|
|           0|        9829|   -7.566976|   -2.742090|    0.000000|    0.458291|
|           0|        9830|   -7.567126|   -2.742375|    0.000000|    0.458290|
|           0|        9831|   -7.567275|   -2.742660|    0.000000|    0.458290|
|           0|        9832|   -7.567424|   -2.742945|    0.000000|    0.458289|
|           0|        9833|   -7.567573|   -2.743229|    0.000000|    0.458289|
|           0|        9834|   -7.567722|   -2.743513|    0.000000|    0.458288|
|           0|        9835|   -7.567871|   -2.743797|    0.000000|    0.458287|
|           0|        9836|   -7.568019|   -2.744080|    0.000000|    0.458287|
|           0|        9837|   -7.568168|   -2.744364|    0.000000|    0.458286|
|           0|        9838|   -7.568316|   -2.744647|    0.000000|    0.458286|
|           0|        9839|   -7.568464|   -2.744929|    0.000000|    0.458285|
|           0|        9840|   -7.568611|   -2.745212|    0.000000|    0.458284|
|           0|        9841|   -7.568759|   -2.745494|    0.000000|    0.458284|
|           0|        9842|   -7.568906|   -2.745776|    0.000000|    0.458283|
|           0|        9843|   -7.569054|   -2.746058|    0.000000|    0.458282|
|           0|        9844|   -7.569201|   -2.746340|    0.000000|    0.458282|
|           0|        9845|   -7.569348|   -2.746621|    0.000000|    0.458281|
|           0|        9846|   -7.569494|   -2.746902|    0.000000|    0.458281|
|           0|        9847|   -7.569641|   -2.747183|    0.000000|    0.458280|
|           0|        9848|   -7.569787|   -2.747464|    0.000000|    0.458279|
|           0|        9849|   -7.569933|   -2.747744|    0.000000|    0.458279|
|           0|        9850|   -7.570079|   -2.748024|    0.000000|    0.458278|
|           0|        9851|   -7.570225|   -2.748304|    0.000000|    0.458278|
|           0|        9852|   -7.570371|   -2.748584|    0.000000|    0.458277|
|           0|        9853|   -7.570516|   -2.748863|    0.000000|    0.458276|
|           0|        9854|   -7.570661|   -2.749142|    0.000000|    0.458276|
|           0|        9855|   -7.570806|   -2.749421|    0.000000|    0.458275|
|           0|        9856|   -7.570951|   -2.749700|    0.000000|    0.458275|
|           0|        9857|   -7.571096|   -2.749978|    0.000000|    0.458274|
|           0|        9858|   -7.571240|   -2.750256|    0.000000|    0.458273|
|           0|        9859|   -7.571385|   -2.750534|    0.000000|    0.458273|
|           0|        9860|   -7.571529|   -2.750812|    0.000000|    0.458272|
|           0|        9861|   -7.571673|   -2.751090|    0.000000|    0.458271|
|           0|        9862|   -7.571817|   -2.751367|    0.000000|    0.458271|
|           0|        9863|   -7.571960|   -2.751644|    0.000000|    0.458270|
|           0|        9864|   -7.572104|   -2.751921|    0.000000|    0.458270|
|           0|        9865|   -7.572247|   -2.752197|    0.000000|    0.458269|
|           0|        9866|   -7.572390|   -2.752473|    0.000000|    0.458268|
|           0|        9867|   -7.572533|   -2.752750|    0.000000|    0.458268|
|           0|        9868|   -7.572676|   -2.753025|    0.000000|    0.458267|
|           0|        9869|   -7.572818|   -2.753301|    0.000000|    0.458267|
|           0|        9870|   -7.572961|   -2.753576|    0.000000|    0.458266|
|           0|        9871|   -7.573103|   -2.753851|    0.000000|    0.458265|
|           0|        9872|   -7.573245|   -2.754126|    0.000000|    0.458265|
|           0|        9873|   -7.573386|   -2.754401|    0.000000|    0.458264|
|           0|        9874|   -7.573528|   -2.754675|    0.000000|    0.458264|
|           0|        9875|   -7.573669|   -2.754950|    0.000000|    0.458263|
|           0|        9876|   -7.573811|   -2.755224|    0.000000|    0.458262|
|           0|        9877|   -7.573952|   -2.755497|    0.000000|    0.458262|
|           0|        9878|   -7.574092|   -2.755771|    0.000000|    0.458261|
|           0|        9879|   -7.574233|   -2.756044|    0.000000|    0.458261|
|           0|        9880|   -7.574374|   -2.756317|    0.000000|    0.458260|
|           0|        9881|   -7.574514|   -2.756590|    0.000000|    0.458259|
|           0|        9882|   -7.574654|   -2.756862|    0.000000|    0.458259|
|           0|        9883|   -7.574794|   -2.757135|    0.000000|    0.458258|
|           0|        9884|   -7.574934|   -2.757407|    0.000000|    0.458258|
|           0|        9885|   -7.575073|   -2.757679|    0.000000|    0.458257|
|           0|        9886|   -7.575213|   -2.757950|    0.000000|    0.458256|
|           0|        9887|   -7.575352|   -2.758222|    0.000000|    0.458256|
|           0|        9888|   -7.575491|   -2.758493|    0.000000|    0.458255|
|           0|        9889|   -7.575630|   -2.758764|    0.000000|    0.458255|
|           0|        9890|   -7.575768|   -2.759035|    0.000000|    0.458254|
|           0|        9891|   -7.575907|   -2.759305|    0.000000|    0.458253|
|           0|        9892|   -7.576045|   -2.759576|    0.000000|    0.458253|
|           0|        9893|   -7.576183|   -2.759846|    0.000000|    0.458252|
|           0|        9894|   -7.576321|   -2.760116|    0.000000|    0.458252|
|           0|        9895|   -7.576458|   -2.760385|    0.000000|    0.458251|
|           0|        9896|   -7.576596|   -2.760655|    0.000000|    0.458250|
|           0|        9897|   -7.576733|   -2.760924|    0.000000|    0.458250|
|           0|        9898|   -7.576870|   -2.761193|    0.000000|    0.458249|
|           0|        9899|   -7.577007|   -2.761461|    0.000000|    0.458249|
|           0|        9900|   -7.577144|   -2.761730|    0.000000|    0.458248|
|           0|        9901|   -7.577280|   -2.761998|    0.000000|    0.458247|
|           0|        9902|   -7.577417|   -2.762266|    0.000000|    0.458247|
|           0|        9903|   -7.577553|   -2.762534|    0.000000|    0.458246|
|           0|        9904|   -7.577689|   -2.762802|    0.000000|    0.458246|
|           0|        9905|   -7.577825|   -2.763069|    0.000000|    0.458245|
|           0|        9906|   -7.577960|   -2.763336|    0.000000|    0.458244|
|           0|        9907|   -7.578096|   -2.763603|    0.000000|    0.458244|
|           0|        9908|   -7.578231|   -2.763870|    0.000000|    0.458243|
|           0|        9909|   -7.578366|   -2.764136|    0.000000|    0.458243|
|           0|        9910|   -7.578501|   -2.764402|    0.000000|    0.458242|
|           0|        9911|   -7.578635|   -2.764668|    0.000000|    0.458241|
|           0|        9912|   -7.578770|   -2.764934|    0.000000|    0.458241|
|           0|        9913|   -7.578904|   -2.765200|    0.000000|    0.458240|
|           0|        9914|   -7.579038|   -2.765465|    0.000000|    0.458240|
|           0|        9915|   -7.579172|   -2.765730|    0.000000|    0.458239|
|           0|        9916|   -7.579306|   -2.765995|    0.000000|    0.458238|
|           0|        9917|   -7.579439|   -2.766260|    0.000000|    0.458238|
|           0|        9918|   -7.579573|   -2.766525|    0.000000|    0.458237|
|           0|        9919|   -7.579706|   -2.766789|    0.000000|    0.458237|
|           0|        9920|   -7.579839|   -2.767053|    0.000000|    0.458236|
|           0|        9921|   -7.579972|   -2.767317|    0.000000|    0.458235|
|           0|        9922|   -7.580104|   -2.767580|    0.000000|    0.458235|
|           0|        9923|   -7.580237|   -2.767844|    0.000000|    0.458234|
|           0|        9924|   -7.580369|   -2.768107|    0.000000|    0.458234|
|           0|        9925|   -7.580501|   -2.768370|    0.000000|    0.458233|
|           0|        9926|   -7.580633|   -2.768633|    0.000000|    0.458233|
|           0|        9927|   -7.580764|   -2.768895|    0.000000|    0.458232|
|           0|        9928|   -7.580896|   -2.769158|    0.000000|    0.458231|
|           0|        9929|   -7.581027|   -2.769420|    0.000000|    0.458231|
|           0|        9930|   -7.581158|   -2.769682|    0.000000|    0.458230|
|           0|        9931|   -7.581289|   -2.769943|    0.000000|    0.458230|
|           0|        9932|   -7.581419|   -2.770205|    0.000000|    0.458229|
|           0|        9933|   -7.581550|   -2.770466|    0.000000|    0.458228|
|           0|        9934|   -7.581680|   -2.770727|    0.000000|    0.458228|
|           0|        9935|   -7.581810|   -2.770988|    0.000000|    0.458227|
|           0|        9936|   -7.581940|   -2.771249|    0.000000|    0.458227|
|           0|        9937|   -7.582070|   -2.771509|    0.000000|    0.458226|
|           0|        9938|   -7.582200|   -2.771769|    0.000000|    0.458225|
|           0|        9939|   -7.582329|   -2.772029|    0.000000|    0.458225|
|           0|        9940|   -7.582458|   -2.772289|    0.000000|    0.458224|
|           0|        9941|   -7.582587|   -2.772549|    0.000000|    0.458224|
|           0|        9942|   -7.582716|   -2.772808|    0.000000|    0.458223|
|           0|        9943|   -7.582844|   -2.773067|    0.000000|    0.458222|
|           0|        9944|   -7.582973|   -2.773326|    0.000000|    0.458222|
|           0|        9945|   -7.583101|   -2.773585|    0.000000|    0.458221|
|           0|        9946|   -7.583229|   -2.773843|    0.000000|    0.458221|
|           0|        9947|   -7.583357|   -2.774102|    0.000000|    0.458220|
|           0|        9948|   -7.583485|   -2.774360|    0.000000|    0.458220|
|           0|        9949|   -7.583612|   -2.774618|    0.000000|    0.458219|
|           0|        9950|   -7.583739|   -2.774875|    0.000000|    0.458218|
|           0|        9951|   -7.583866|   -2.775133|    0.000000|    0.458218|
|           0|        9952|   -7.583993|   -2.775390|    0.000000|    0.458217|
|           0|        9953|   -7.584120|   -2.775647|    0.000000|    0.458217|
|           0|        9954|   -7.584247|   -2.775904|    0.000000|    0.458216|
|           0|        9955|   -7.584373|   -2.776161|    0.000000|    0.458215|
|           0|        9956|   -7.584499|   -2.776417|    0.000000|    0.458215|
|           0|        9957|   -7.584625|   -2.776673|    0.000000|    0.458214|
|           0|        9958|   -7.584751|   -2.776930|    0.000000|    0.458214|
|           0|        9959|   -7.584876|   -2.777185|    0.000000|    0.458213|
|           0|        9960|   -7.585002|   -2.777441|    0.000000|    0.458213|
|           0|        9961|   -7.585127|   -2.777696|    0.000000|    0.458212|
|           0|        9962|   -7.585252|   -2.777952|    0.000000|    0.458211|
|           0|        9963|   -7.585377|   -2.778207|    0.000000|    0.458211|
|           0|        9964|   -7.585501|   -2.778462|    0.000000|    0.458210|
|           0|        9965|   -7.585626|   -2.778716|    0.000000|    0.458210|
|           0|        9966|   -7.585750|   -2.778971|    0.000000|    0.458209|
|           0|        9967|   -7.585874|   -2.779225|    0.000000|    0.458208|
|           0|        9968|   -7.585998|   -2.779479|    0.000000|    0.458208|
|           0|        9969|   -7.586122|   -2.779733|    0.000000|    0.458207|
|           0|        9970|   -7.586245|   -2.779986|    0.000000|    0.458207|
|           0|        9971|   -7.586369|   -2.780240|    0.000000|    0.458206|
|           0|        9972|   -7.586492|   -2.780493|    0.000000|    0.458206|
|           0|        9973|   -7.586615|   -2.780746|    0.000000|    0.458205|
|           0|        9974|   -7.586738|   -2.780999|    0.000000|    0.458204|
|           0|        9975|   -7.586860|   -2.781251|    0.000000|    0.458204|
|           0|        9976|   -7.586983|   -2.781504|    0.000000|    0.458203|
|           0|        9977|   -7.587105|   -2.781756|    0.000000|    0.458203|
|           0|        9978|   -7.587227|   -2.782008|    0.000000|    0.458202|
|           0|        9979|   -7.587349|   -2.782260|    0.000000|    0.458202|
|           0|        9980|   -7.587471|   -2.782512|    0.000000|    0.458201|
|           0|        9981|   -7.587592|   -2.782763|    0.000000|    0.458200|
|           0|        9982|   -7.587713|   -2.783014|    0.000000|    0.458200|
|           0|        9983|   -7.587834|   -2.783265|    0.000000|    0.458199|
|           0|        9984|   -7.587955|   -2.783516|    0.000000|    0.458199|
|           0|        9985|   -7.588076|   -2.783767|    0.000000|    0.458198|
|           0|        9986|   -7.588197|   -2.784017|    0.000000|    0.458198|
|           0|        9987|   -7.588317|   -2.784268|    0.000000|    0.458197|
|           0|        9988|   -7.588437|   -2.784518|    0.000000|    0.458196|
|           0|        9989|   -7.588557|   -2.784768|    0.000000|    0.458196|
|           0|        9990|   -7.588677|   -2.785017|    0.000000|    0.458195|
|           0|        9991|   -7.588797|   -2.785267|    0.000000|    0.458195|
|           0|        9992|   -7.588916|   -2.785516|    0.000000|    0.458194|
|           0|        9993|   -7.589036|   -2.785765|    0.000000|    0.458194|
|           0|        9994|   -7.589155|   -2.786014|    0.000000|    0.458193|
|           0|        9995|   -7.589274|   -2.786263|    0.000000|    0.458192|
|           0|        9996|   -7.589392|   -2.786511|    0.000000|    0.458192|
|           0|        9997|   -7.589511|   -2.786760|    0.000000|    0.458191|
|           0|        9998|   -7.589629|   -2.787008|    0.000000|    0.458191|
|           0|        9999|   -7.589748|   -2.787256|    0.000000|    0.458190|

----------------------------- Solver Exit -------------------------------

Maximum number of iterations reached (ITER = 10000) before convergence.
+-----------------------------------------------------------------------+
|      Convergence Field     |     Value    |   Criterion  |  Converged |
+-----------------------------------------------------------------------+
|                 relrms[Rho]|       -3.7922|         < -15|          No|
+-----------------------------------------------------------------------+
-------------------------------------------------------------------------
+-----------------------------------------------------------------------+
|        File Writing Summary       |              Filename             |
+-----------------------------------------------------------------------+
|SU2 binary restart                 |restart_flow.dat                   |
|SU2 ASCII restart                  |restart_flow.csv                   |
|Paraview                           |flow.vtu                           |
|Paraview surface                   |surface_flow.vtu                   |
+-----------------------------------------------------------------------+

------------------------- Solver Postprocessing -------------------------
Deleted CNumerics container.
Deleted CIntegration container.
Deleted CSolver container.
Deleted CIteration container.
Deleted CInterface container.
Deleted CGeometry container.
Deleted CFreeFormDefBox class.
Deleted CSurfaceMovement class.
Deleted CVolumetricMovement class.
Deleted CConfig container.
Deleted nInst container.
Deleted COutput class.
-------------------------------------------------------------------------

------------------------- Exit Success (SU2_CFD) ------------------------

