Lmod has detected the following error: The following module(s) are unknown:
"epcc-job-env"

Please check the spelling or version number. Also try "module spider ..."
It is also possible your cache file is out-of-date; it may help to try:
  $ module --ignore-cache load "epcc-job-env"

Also make sure that all modulefiles written in TCL start with the string
#%Module




-------------------------------------------------------------------------
|    ___ _   _ ___                                                      |
|   / __| | | |_  )   Release 7.4.0 "Blackbird"                         |
|   \__ \ |_| |/ /                                                      |
|   |___/\___//___|   Suite (Computational Fluid Dynamics Code)         |
|                                                                       |
-------------------------------------------------------------------------
| SU2 Project Website: https://su2code.github.io                        |
|                                                                       |
| The SU2 Project is maintained by the SU2 Foundation                   |
| (http://su2foundation.org)                                            |
-------------------------------------------------------------------------
| Copyright 2012-2022, SU2 Contributors                                 |
|                                                                       |
| SU2 is free software; you can redistribute it and/or                  |
| modify it under the terms of the GNU Lesser General Public            |
| License as published by the Free Software Foundation; either          |
| version 2.1 of the License, or (at your option) any later version.    |
|                                                                       |
| SU2 is distributed in the hope that it will be useful,                |
| but WITHOUT ANY WARRANTY; without even the implied warranty of        |
| MERCHANTABILITY or FITNESS FOR A PARTICULAR PURPOSE. See the GNU      |
| Lesser General Public License for more details.                       |
|                                                                       |
| You should have received a copy of the GNU Lesser General Public      |
| License along with SU2. If not, see <http://www.gnu.org/licenses/>.   |
-------------------------------------------------------------------------

Parsing config file for zone 0

----------------- Physical Case Definition ( Zone 0 ) -------------------
Compressible RANS equations.
Turbulence model: Spalart-Allmaras-noft2
Hybrid RANS/LES: No Hybrid RANS/LES
Mach number: 0.01.
Angle of attack (AoA): 0 deg, and angle of sideslip (AoS): 0 deg.
Reynolds number: 5601. Reference length 1.
No restart solution, use the values at infinity (freestream).
Dimensional simulation.
The reference area will be computed using y(2D) or z(3D) projection.
The semi-span will be computed using the max y(3D) value.
The reference length is 1 m.
Reference origin for moment evaluation is (0, 0, 0).
Surface(s) where the force coefficients are evaluated: nozzle.

Surface(s) plotted in the output file: nozzle.
Input mesh file name: ../../template_run/jet_NLR_gr1.su2

--------------- Space Numerical Integration ( Zone 0 ) ------------------
Roe (with entropy fix = 0) solver for the flow inviscid terms.
Standard Roe without low-dissipation function.
Second order integration in space, with slope limiter.
Venkatakrishnan slope-limiting method, with constant: 0.05.
The reference element size is: 1. 
Scalar upwind solver for the turbulence model.
First order integration in space.
Average of gradients with correction (viscous flow terms).
Average of gradients with correction (viscous turbulence terms).
Gradient for upwind reconstruction: inverse-distance weighted Least-Squares.
Gradient for viscous and source terms: inverse-distance weighted Least-Squares.

--------------- Time Numerical Integration  ( Zone 0 ) ------------------
Local time stepping (steady state simulation).
Euler implicit method for the flow equations.
FGMRES is used for solving the linear system.
Using a ILU(0) preconditioning.
Convergence criteria of the linear solver: 1e-10.
Max number of linear iterations: 10.
No CFL adaptation.
Courant-Friedrichs-Lewy number:       10
Euler implicit time integration for the turbulence model.

------------------ Convergence Criteria  ( Zone 0 ) ---------------------
Maximum number of solver subiterations: 10000.
Begin convergence monitoring at iteration 0.
Residual minimum value: 1e-15.
Cauchy series min. value: 1e-05.
Number of Cauchy elements: 100.
Begin windowed time average at iteration 0.

-------------------- Output Information ( Zone 0 ) ----------------------
File writing frequency: 
+------------------------------------+
|                     File| Frequency|
+------------------------------------+
|                  RESTART|       500|
|            RESTART_ASCII|       500|
|                 PARAVIEW|       500|
|         SURFACE_PARAVIEW|       500|
+------------------------------------+
Writing the convergence history file every 1 inner iterations.
Writing the screen convergence history every 1 inner iterations.
The tabular file format is CSV (.csv).
Convergence history file name: history.
Forces breakdown file name: forces_breakdown.dat.
Surface file name: surface_flow.
Volume file name: flow.
Restart file name: restart_flow.dat.

------------- Config File Boundary Information ( Zone 0 ) ---------------
+-----------------------------------------------------------------------+
|                        Marker Type|                        Marker Name|
+-----------------------------------------------------------------------+
|                          Far-field|                          farfield1|
|                                   |                          farfield2|
|                                   |                          farfield3|
+-----------------------------------------------------------------------+
|                     Inlet boundary|                              inlet|
+-----------------------------------------------------------------------+
|                    Outlet boundary|                             outlet|
+-----------------------------------------------------------------------+
|                     Heat flux wall|                             nozzle|
+-----------------------------------------------------------------------+

-------------------- Output Preprocessing ( Zone 0 ) --------------------

WARNING: SURFACE_PRESSURE_DROP can only be computed for at least 2 surfaces (outlet, inlet, ...)

Screen output fields: TIME_ITER, INNER_ITER, RMS_DENSITY, RMS_NU_TILDE, LIFT, DRAG
History output group(s): ITER, RMS_RES, REL_RMS_RES, AERO_COEFF
Convergence field(s): REL_RMS_DENSITY
Warning: No (valid) fields chosen for time convergence monitoring. Time convergence monitoring inactive.
Volume output fields: PRIMITIVE, VORTEX_IDENTIFICATION, COORDINATES, SOLUTION

------------------- Geometry Preprocessing ( Zone 0 ) -------------------
Three dimensional problem.
1521230 grid points before partitioning.
1504960 volume elements before partitioning.
6 surface markers.
17216 boundary elements in index 0 (Marker = farfield1).
2240 boundary elements in index 1 (Marker = farfield2).
3648 boundary elements in index 2 (Marker = farfield3).
1472 boundary elements in index 3 (Marker = inlet).
2240 boundary elements in index 4 (Marker = nozzle).
5120 boundary elements in index 5 (Marker = outlet).
Executing the partitioning functions.
Building the graph adjacency structure.
Calling ParMETIS... graph partitioning complete (262320 edge cuts).
Distributing ParMETIS coloring.
Rebalancing vertices.
Rebalancing volume element connectivity.
Rebalancing markers and surface elements.
2088390 vertices including ghost points. 
1776192 interior elements including halo cells. 
1776192 hexahedra.
Establishing MPI communication patterns.
Setting point connectivity.
Renumbering points (Reverse Cuthill McKee Ordering).
Recomputing point connectivity.
Setting element connectivity.
Checking the numerical grid orientation.
All volume elements are correctly orientend.
All surface elements are correctly orientend.
Identifying edges and vertices.
Setting the control volume structure.
Volume of the computational grid: 152298.
Searching for the closest normal neighbors to the surfaces.
Storing a mapping from global to local point index.
Compute the surface curvature.
Max K: 0. Mean K: 0. Standard deviation K: 0.
Checking for periodicity.
Computing mesh quality statistics for the dual control volumes.
+--------------------------------------------------------------+
|           Mesh Quality Metric|        Minimum|        Maximum|
+--------------------------------------------------------------+
|    Orthogonality Angle (deg.)|        58.2023|        89.9982|
|     CV Face Area Aspect Ratio|        1.00819|         505.66|
|           CV Sub-Volume Ratio|        1.00188|        1.61202|
+--------------------------------------------------------------+
Finding max control volume width.
Communicating number of neighbors.
Reference area = 8.81019 m^2.
Semi-span length = 0.784008 m.
Wetted area = 27.7764 m^2.
Area projection in the x-plane = 0.0189088 m^2, y-plane = 8.81019 m^2, z-plane = 8.81019 m^2.
Max. coordinate in the x-direction = 0 m, y-direction = 0.784008 m, z-direction = 0.784008 m.
Min. coordinate in the x-direction = -6 m, y-direction = -0.784008 m, z-direction = -0.784008 m.
Computing wall distances.

-------------------- Solver Preprocessing ( Zone 0 ) --------------------
Viscous flow: Computing pressure using the ideal gas law
based on the free-stream temperature and a density computed
from the Reynolds number.
Force coefficients computed using free-stream values.

-- Models:
+------------------------------------------------------------------------------+
|          Viscosity Model|        Conductivity Model|              Fluid Model|
+------------------------------------------------------------------------------+
|               SUTHERLAND|          CONSTANT_PRANDTL|             STANDARD_AIR|
+------------------------------------------------------------------------------+
-- Fluid properties:
+------------------------------------------------------------------------------+
|                  Name|    Dim. value|    Ref. value|      Unit|Non-dim. value|
+------------------------------------------------------------------------------+
|        Ref. Viscosity|     1.716e-05|             1|   N.s/m^2|     1.716e-05|
|      Sutherland Temp.|        273.15|             1|         K|        273.15|
|     Sutherland Const.|         110.4|             1|         K|         110.4|
+------------------------------------------------------------------------------+
|        Prandtl (Lam.)|             -|             -|         -|          0.72|
|       Prandtl (Turb.)|             -|             -|         -|           0.9|
+------------------------------------------------------------------------------+
|          Gas Constant|       287.058|             1|  N.m/kg.K|       287.058|
|      Spec. Heat Ratio|             -|             -|         -|           1.4|
+------------------------------------------------------------------------------+
-- Initial and free-stream conditions:
+------------------------------------------------------------------------------+
|                  Name|    Dim. value|    Ref. value|      Unit|Non-dim. value|
+------------------------------------------------------------------------------+
|       Static Pressure|          6223|             1|        Pa|          6223|
|               Density|     0.0722618|             1|    kg/m^3|     0.0722618|
|           Temperature|           300|             1|         K|           300|
|          Total Energy|        215300|             1|   m^2/s^2|        215300|
|            Velocity-X|       3.47224|             1|       m/s|       3.47224|
|            Velocity-Y|             0|             1|       m/s|             0|
|            Velocity-Z|             0|             1|       m/s|             0|
|    Velocity Magnitude|       3.47224|             1|       m/s|       3.47224|
+------------------------------------------------------------------------------+
|             Viscosity|   1.84592e-05|             1|   N.s/m^2|   1.84592e-05|
|          Conductivity|             -|             1|   W/m^2.K|             -|
|     Turb. Kin. Energy|     0.0452116|             1|   m^2/s^2|     0.0452116|
|     Spec. Dissipation|       17.6989|             1|       1/s|       17.6989|
+------------------------------------------------------------------------------+
|           Mach Number|             -|             -|         -|          0.01|
|       Reynolds Number|             -|             -|         -|       13592.7|
+------------------------------------------------------------------------------+
Initialize Jacobian structure (Navier-Stokes). MG level: 0.
Initialize Jacobian structure (SA model).

------------------- Numerics Preprocessing ( Zone 0 ) -------------------

----------------- Integration Preprocessing ( Zone 0 ) ------------------

------------------- Iteration Preprocessing ( Zone 0 ) ------------------
Euler/Navier-Stokes/RANS fluid iteration.

------------------------------ Begin Solver -----------------------------

Simulation Run using the Single-zone Driver
+-----------------------------------------------------------------------------+
|   Time_Iter|  Inner_Iter|    rms[Rho]|     rms[nu]|          CL|          CD|
+-----------------------------------------------------------------------------+
|           0|           0|   -3.659531|   -5.920433|    0.000004|    3.926589|
|           0|           1|   -3.869260|   -5.898477|    0.000009|    3.389396|
|           0|           2|   -4.195163|   -5.922573|    0.000012|    2.361009|
|           0|           3|   -4.313185|   -5.952947|    0.000015|    1.409450|
|           0|           4|   -4.351979|   -5.974323|    0.000020|    0.527577|
|           0|           5|   -4.378478|   -5.991680|    0.000016|   -0.366801|
|           0|           6|   -4.400332|   -6.007350|    0.000030|   -1.331327|
|           0|           7|   -4.419265|   -6.023320|    0.000048|   -2.391708|
|           0|           8|   -4.433395|   -6.038942|    0.000104|   -3.537221|
|           0|           9|   -4.443145|   -6.053407|    0.000378|   -4.737629|
|           0|          10|   -4.448360|   -6.066484|   -0.000070|   -5.983113|
|           0|          11|   -4.449691|   -6.078187|   -0.000254|   -7.262228|
|           0|          12|   -4.447446|   -6.088388|   -0.000777|   -8.555242|
|           0|          13|   -4.441883|   -6.097054|   -0.002774|   -9.834141|
|           0|          14|   -4.433770|   -6.104163|   -0.005813|  -11.084685|
|           0|          15|   -4.423890|   -6.109572|   -0.008893|  -12.290811|
|           0|          16|   -4.412826|   -6.113352|   -0.012235|  -13.435884|
|           0|          17|   -4.400853|   -6.115798|   -0.010717|  -14.516419|
|           0|          18|   -4.388480|   -6.117201|   -0.006085|  -15.516855|
|           0|          19|   -4.376222|   -6.118831|   -0.004041|  -16.414916|
|           0|          20|   -4.364090|   -6.123361|   -0.000800|  -17.198333|
|           0|          21|   -4.352285|   -6.129094|    0.003341|  -17.848642|
|           0|          22|   -4.341086|   -6.131536|    0.008042|  -18.352306|
|           0|          23|   -4.330403|   -6.129750|    0.009533|  -18.699601|
|           0|          24|   -4.320213|   -6.124554|    0.007309|  -18.879744|
|           0|          25|   -4.310116|   -6.116929|    0.000872|  -18.882552|
|           0|          26|   -4.300763|   -6.107456|   -0.004490|  -18.694910|
|           0|          27|   -4.291605|   -6.096686|   -0.005382|  -18.307283|
|           0|          28|   -4.282522|   -6.084779|   -0.003307|  -17.716724|
|           0|          29|   -4.273906|   -6.071615|   -0.001361|  -16.915984|
|           0|          30|   -4.265507|   -6.057575|   -0.000335|  -15.909534|
|           0|          31|   -4.257100|   -6.042875|    0.000902|  -14.701688|
|           0|          32|   -4.249009|   -6.026953|    0.002322|  -13.302365|
|           0|          33|   -4.240968|   -6.010318|    0.003628|  -11.729101|
|           0|          34|   -4.233141|   -5.993200|    0.004422|   -9.997321|
|           0|          35|   -4.225331|   -5.975065|    0.004816|   -8.134619|
|           0|          36|   -4.217447|   -5.956634|    0.004977|   -6.166326|
|           0|          37|   -4.209749|   -5.937191|    0.005006|   -4.124084|
|           0|          38|   -4.201834|   -5.917590|    0.004819|   -2.034727|
|           0|          39|   -4.193914|   -5.897492|    0.004793|    0.065744|
|           0|          40|   -4.185651|   -5.876859|    0.004438|    2.149032|
|           0|          41|   -4.177449|   -5.856167|    0.004585|    4.190726|
|           0|          42|   -4.168965|   -5.834762|    0.004736|    6.168943|
|           0|          43|   -4.160300|   -5.813996|    0.006307|    8.064443|
|           0|          44|   -4.151556|   -5.792780|    0.007026|    9.864870|
|           0|          45|   -4.142483|   -5.771863|    0.007081|   11.565081|
|           0|          46|   -4.133396|   -5.750862|    0.008293|   13.159605|
|           0|          47|   -4.124321|   -5.729878|    0.008093|   14.644986|
|           0|          48|   -4.115187|   -5.709201|    0.009706|   16.023710|
|           0|          49|   -4.106110|   -5.688794|    0.008851|   17.301516|
|           0|          50|   -4.097036|   -5.668365|    0.008102|   18.485575|
|           0|          51|   -4.088011|   -5.648199|    0.007411|   19.584180|
|           0|          52|   -4.079093|   -5.628106|    0.005324|   20.602970|
|           0|          53|   -4.070196|   -5.608377|    0.004693|   21.548968|
|           0|          54|   -4.061363|   -5.588523|    0.004196|   22.427540|
|           0|          55|   -4.052445|   -5.569169|    0.002894|   23.243425|
|           0|          56|   -4.043534|   -5.549758|    0.003254|   24.001820|
|           0|          57|   -4.034515|   -5.530935|    0.003498|   24.702811|
|           0|          58|   -4.025351|   -5.512173|    0.002577|   25.344868|
|           0|          59|   -4.016084|   -5.493679|    0.001134|   25.927978|
|           0|          60|   -4.006674|   -5.475258|   -0.000529|   26.447504|
|           0|          61|   -3.997074|   -5.456749|   -0.001930|   26.898225|
|           0|          62|   -3.987353|   -5.438447|   -0.004959|   27.274013|
|           0|          63|   -3.977474|   -5.420086|   -0.006740|   27.570341|
|           0|          64|   -3.967467|   -5.401833|   -0.006531|   27.783451|
|           0|          65|   -3.957388|   -5.383756|   -0.004164|   27.911978|
|           0|          66|   -3.947229|   -5.365750|   -0.001248|   27.957073|
|           0|          67|   -3.937038|   -5.348138|    0.001373|   27.921166|
|           0|          68|   -3.926844|   -5.330855|    0.003212|   27.809177|
|           0|          69|   -3.916672|   -5.313731|    0.004176|   27.624888|
|           0|          70|   -3.906595|   -5.297111|    0.003912|   27.373654|
|           0|          71|   -3.896594|   -5.280844|    0.003057|   27.063287|
|           0|          72|   -3.886767|   -5.264769|    0.001600|   26.702389|
|           0|          73|   -3.877117|   -5.249143|    0.000383|   26.300291|
|           0|          74|   -3.867703|   -5.233710|   -0.000449|   25.867399|
|           0|          75|   -3.858608|   -5.218419|   -0.001081|   25.412211|
|           0|          76|   -3.849804|   -5.203438|   -0.001439|   24.943478|
|           0|          77|   -3.841357|   -5.188599|   -0.001563|   24.469464|
|           0|          78|   -3.833358|   -5.173924|   -0.001618|   23.997264|
|           0|          79|   -3.825813|   -5.159613|   -0.001767|   23.532525|
|           0|          80|   -3.818710|   -5.145662|   -0.001846|   23.079959|
|           0|          81|   -3.812127|   -5.131941|   -0.001856|   22.640804|
|           0|          82|   -3.806129|   -5.118566|   -0.001783|   22.215206|
|           0|          83|   -3.800576|   -5.105560|   -0.001631|   21.801983|
|           0|          84|   -3.795545|   -5.092732|   -0.001432|   21.398646|
|           0|          85|   -3.791064|   -5.080228|   -0.001251|   21.001680|
|           0|          86|   -3.787085|   -5.067987|   -0.000856|   20.607107|
|           0|          87|   -3.783449|   -5.055811|   -0.000318|   20.209744|
|           0|          88|   -3.780182|   -5.043921|    0.000058|   19.804509|
|           0|          89|   -3.777234|   -5.032308|    0.000174|   19.386062|
|           0|          90|   -3.774577|   -5.020717|    0.000127|   18.949340|
|           0|          91|   -3.771872|   -5.009306|    0.000427|   18.490874|
|           0|          92|   -3.769161|   -4.998040|    0.000893|   18.007894|
|           0|          93|   -3.766487|   -4.986755|    0.001247|   17.497869|
|           0|          94|   -3.763789|   -4.975668|    0.001466|   16.959003|
|           0|          95|   -3.760642|   -4.964674|    0.001768|   16.390450|
|           0|          96|   -3.757089|   -4.953591|    0.001920|   15.792681|
|           0|          97|   -3.753272|   -4.942673|    0.002117|   15.166517|
|           0|          98|   -3.749406|   -4.931787|    0.002414|   14.512458|
|           0|          99|   -3.745134|   -4.920837|    0.002804|   13.832693|
|           0|         100|   -3.740315|   -4.910027|    0.003167|   13.130213|
|           0|         101|   -3.735249|   -4.899154|    0.003407|   12.408458|
|           0|         102|   -3.730120|   -4.888268|    0.003513|   11.669499|
|           0|         103|   -3.724835|   -4.877509|    0.003746|   10.915916|
|           0|         104|   -3.719306|   -4.866639|    0.004078|   10.151192|
|           0|         105|   -3.713677|   -4.855784|    0.004500|    9.378514|
|           0|         106|   -3.708067|   -4.844996|    0.004983|    8.601001|
|           0|         107|   -3.702633|   -4.834129|    0.005511|    7.822936|
|           0|         108|   -3.697382|   -4.823329|    0.005982|    7.046838|
|           0|         109|   -3.692273|   -4.812520|    0.006341|    6.276373|
|           0|         110|   -3.687330|   -4.801666|    0.006610|    5.513179|
|           0|         111|   -3.682633|   -4.790907|    0.006857|    4.759543|
|           0|         112|   -3.678187|   -4.780124|    0.007095|    4.017889|
|           0|         113|   -3.673981|   -4.769327|    0.007386|    3.293024|
|           0|         114|   -3.670114|   -4.758601|    0.007743|    2.589779|
|           0|         115|   -3.666557|   -4.747859|    0.008148|    1.910271|
|           0|         116|   -3.663290|   -4.737159|    0.008422|    1.254485|
|           0|         117|   -3.660235|   -4.726531|    0.008702|    0.623783|
|           0|         118|   -3.657626|   -4.715859|    0.009054|    0.018918|
|           0|         119|   -3.655551|   -4.705248|    0.009308|   -0.559735|
|           0|         120|   -3.654032|   -4.694640|    0.009452|   -1.112366|
|           0|         121|   -3.653054|   -4.684028|    0.009498|   -1.639130|
|           0|         122|   -3.652641|   -4.673470|    0.009414|   -2.140362|
|           0|         123|   -3.652655|   -4.662855|    0.009269|   -2.616382|
|           0|         124|   -3.653143|   -4.652255|    0.009106|   -3.067466|
|           0|         125|   -3.654253|   -4.641615|    0.008977|   -3.493769|
|           0|         126|   -3.656121|   -4.630910|    0.008841|   -3.895691|
|           0|         127|   -3.658862|   -4.620151|    0.008596|   -4.273963|
|           0|         128|   -3.662598|   -4.609263|    0.008314|   -4.629611|
|           0|         129|   -3.667300|   -4.598260|    0.007951|   -4.963681|
|           0|         130|   -3.672797|   -4.587084|    0.007486|   -5.277472|
|           0|         131|   -3.678891|   -4.575741|    0.006912|   -5.572383|
|           0|         132|   -3.685358|   -4.564172|    0.006317|   -5.849791|
|           0|         133|   -3.692148|   -4.552423|    0.005733|   -6.111179|
|           0|         134|   -3.699307|   -4.540568|    0.005210|   -6.358235|
|           0|         135|   -3.706737|   -4.528572|    0.004762|   -6.592601|
|           0|         136|   -3.714203|   -4.516562|    0.004410|   -6.815846|
|           0|         137|   -3.721323|   -4.504512|    0.004086|   -7.029586|
|           0|         138|   -3.727472|   -4.492496|    0.003769|   -7.235408|
|           0|         139|   -3.732135|   -4.480525|    0.003440|   -7.434797|
|           0|         140|   -3.735187|   -4.468593|    0.003123|   -7.628950|
|           0|         141|   -3.737000|   -4.456772|    0.002857|   -7.818749|
|           0|         142|   -3.737704|   -4.445019|    0.002658|   -8.004671|
|           0|         143|   -3.737399|   -4.433428|    0.002505|   -8.186702|
|           0|         144|   -3.736153|   -4.421961|    0.002394|   -8.364226|
|           0|         145|   -3.733945|   -4.410645|    0.002354|   -8.535987|
|           0|         146|   -3.730619|   -4.399512|    0.002372|   -8.700066|
|           0|         147|   -3.726563|   -4.388566|    0.002483|   -8.853900|
|           0|         148|   -3.721963|   -4.377815|    0.002671|   -8.994301|
|           0|         149|   -3.717069|   -4.367243|    0.002895|   -9.117532|
|           0|         150|   -3.712299|   -4.356915|    0.003145|   -9.219407|
|           0|         151|   -3.707959|   -4.346769|    0.003416|   -9.295419|
|           0|         152|   -3.704398|   -4.336863|    0.003714|   -9.340884|
|           0|         153|   -3.701681|   -4.327166|    0.004030|   -9.351169|
|           0|         154|   -3.699688|   -4.317676|    0.004348|   -9.321815|
|           0|         155|   -3.698329|   -4.308366|    0.004673|   -9.248769|
|           0|         156|   -3.697573|   -4.299219|    0.004983|   -9.128510|
|           0|         157|   -3.697685|   -4.290160|    0.005259|   -8.958228|
|           0|         158|   -3.698735|   -4.281197|    0.005505|   -8.735920|
|           0|         159|   -3.700865|   -4.272238|    0.005622|   -8.460489|
|           0|         160|   -3.704122|   -4.263306|    0.005645|   -8.131849|
|           0|         161|   -3.708541|   -4.254329|    0.005564|   -7.750791|
|           0|         162|   -3.713954|   -4.245328|    0.005427|   -7.319139|
|           0|         163|   -3.720238|   -4.236278|    0.005202|   -6.839640|
|           0|         164|   -3.727449|   -4.227171|    0.004882|   -6.315886|
|           0|         165|   -3.735538|   -4.218045|    0.004500|   -5.752165|
|           0|         166|   -3.744456|   -4.208841|    0.004098|   -5.153380|
|           0|         167|   -3.754071|   -4.199654|    0.003675|   -4.524749|
|           0|         168|   -3.764154|   -4.190364|    0.003213|   -3.871818|
|           0|         169|   -3.774439|   -4.181098|    0.002722|   -3.201340|
|           0|         170|   -3.784798|   -4.171693|    0.002213|   -2.520092|
|           0|         171|   -3.795108|   -4.162303|    0.001667|   -1.835776|
|           0|         172|   -3.805158|   -4.152734|    0.001168|   -1.148965|
|           0|         173|   -3.814774|   -4.143142|    0.000828|   -0.469100|
|           0|         174|   -3.823711|   -4.133349|    0.000347|    0.196803|
|           0|         175|   -3.831784|   -4.123502|   -0.000001|    0.844233|
|           0|         176|   -3.838705|   -4.113446|   -0.000209|    1.468678|
|           0|         177|   -3.844550|   -4.103325|   -0.000332|    2.065868|
|           0|         178|   -3.849215|   -4.093033|   -0.000440|    2.631407|
|           0|         179|   -3.852856|   -4.082751|   -0.000498|    3.160978|
|           0|         180|   -3.855322|   -4.072351|   -0.000507|    3.652296|
|           0|         181|   -3.856775|   -4.061916|   -0.000421|    4.103182|
|           0|         182|   -3.857162|   -4.051321|   -0.000286|    4.511403|
|           0|         183|   -3.856766|   -4.040718|   -0.000087|    4.875550|
|           0|         184|   -3.855564|   -4.029964|    0.000140|    5.194899|
|           0|         185|   -3.854017|   -4.019229|    0.000461|    5.469129|
|           0|         186|   -3.852010|   -4.008345|    0.000760|    5.698268|
|           0|         187|   -3.849908|   -3.997511|    0.001118|    5.882810|
|           0|         188|   -3.847713|   -3.986522|    0.001469|    6.023624|
|           0|         189|   -3.845844|   -3.975607|    0.001858|    6.121981|
|           0|         190|   -3.844185|   -3.964525|    0.002279|    6.179492|
|           0|         191|   -3.842979|   -3.953538|    0.002752|    6.198105|
|           0|         192|   -3.842330|   -3.942382|    0.003219|    6.180025|
|           0|         193|   -3.842275|   -3.931357|    0.003763|    6.127688|
|           0|         194|   -3.842709|   -3.920152|    0.004255|    6.043754|
|           0|         195|   -3.843731|   -3.909124|    0.004699|    5.931003|
|           0|         196|   -3.845285|   -3.897888|    0.005115|    5.792548|
|           0|         197|   -3.847347|   -3.886868|    0.005482|    5.631562|
|           0|         198|   -3.849930|   -3.875620|    0.005816|    5.451187|
|           0|         199|   -3.852862|   -3.864593|    0.006122|    5.254598|
|           0|         200|   -3.856278|   -3.853338|    0.006400|    5.044960|
|           0|         201|   -3.859915|   -3.842300|    0.006606|    4.825231|
|           0|         202|   -3.863870|   -3.831049|    0.006759|    4.598042|
|           0|         203|   -3.867864|   -3.820007|    0.006877|    4.366180|
|           0|         204|   -3.871906|   -3.808807|    0.006942|    4.132518|
|           0|         205|   -3.875872|   -3.797724|    0.006970|    3.899681|
|           0|         206|   -3.879676|   -3.786581|    0.006932|    3.669946|
|           0|         207|   -3.883199|   -3.775372|    0.006856|    3.445448|
|           0|         208|   -3.886292|   -3.764304|    0.006801|    3.228181|
|           0|         209|   -3.888895|   -3.752951|    0.006753|    3.019991|
|           0|         210|   -3.890899|   -3.741916|    0.006765|    2.822355|
|           0|         211|   -3.892417|   -3.730530|    0.006858|    2.636708|
|           0|         212|   -3.892958|   -3.719463|    0.007001|    2.463913|
|           0|         213|   -3.893385|   -3.708051|    0.007192|    2.304377|
|           0|         214|   -3.892389|   -3.696856|    0.007377|    2.158197|
|           0|         215|   -3.891667|   -3.685490|    0.007644|    2.025227|
|           0|         216|   -3.889384|   -3.674050|    0.007955|    1.905273|
|           0|         217|   -3.887728|   -3.662733|    0.008327|    1.797873|
|           0|         218|   -3.884638|   -3.651115|    0.008723|    1.702308|
|           0|         219|   -3.882281|   -3.639838|    0.009090|    1.617611|
|           0|         220|   -3.879014|   -3.628177|    0.009470|    1.542625|
|           0|         221|   -3.876336|   -3.616765|    0.009758|    1.476142|
|           0|         222|   -3.873370|   -3.605157|    0.009938|    1.416879|
|           0|         223|   -3.870965|   -3.593504|    0.010079|    1.363238|
|           0|         224|   -3.868552|   -3.581961|    0.010103|    1.313693|
|           0|         225|   -3.866825|   -3.570153|    0.009982|    1.266838|
|           0|         226|   -3.865296|   -3.558649|    0.009697|    1.221848|
|           0|         227|   -3.864630|   -3.546834|    0.009395|    1.177649|
|           0|         228|   -3.864382|   -3.535195|    0.008978|    1.132867|
|           0|         229|   -3.864746|   -3.523477|    0.008400|    1.086152|
|           0|         230|   -3.865834|   -3.511589|    0.007688|    1.036048|
|           0|         231|   -3.867363|   -3.500015|    0.006939|    0.980942|
|           0|         232|   -3.869674|   -3.488095|    0.006117|    0.919470|
|           0|         233|   -3.872438|   -3.476455|    0.005226|    0.850674|
|           0|         234|   -3.875621|   -3.464682|    0.004234|    0.774057|
|           0|         235|   -3.879148|   -3.452804|    0.003288|    0.689507|
|           0|         236|   -3.882841|   -3.441279|    0.002474|    0.596639|
|           0|         237|   -3.886742|   -3.429391|    0.001767|    0.495137|
|           0|         238|   -3.890482|   -3.417783|    0.001189|    0.384920|
|           0|         239|   -3.894055|   -3.406086|    0.000743|    0.266409|
|           0|         240|   -3.897079|   -3.394211|    0.000413|    0.140087|
|           0|         241|   -3.899672|   -3.382722|    0.000192|    0.006545|
|           0|         242|   -3.901607|   -3.370907|    0.000100|   -0.133628|
|           0|         243|   -3.902271|   -3.359175|    0.000146|   -0.279815|
|           0|         244|   -3.902391|   -3.347590|    0.000329|   -0.431177|
|           0|         245|   -3.901503|   -3.335645|    0.000669|   -0.586672|
|           0|         246|   -3.899258|   -3.324062|    0.001137|   -0.745269|
|           0|         247|   -3.896566|   -3.312295|    0.001691|   -0.905999|
|           0|         248|   -3.892801|   -3.300337|    0.002314|   -1.067922|
|           0|         249|   -3.888220|   -3.288735|    0.002986|   -1.230211|
|           0|         250|   -3.883532|   -3.276808|    0.003692|   -1.392203|
|           0|         251|   -3.878042|   -3.264835|    0.004437|   -1.553174|
|           0|         252|   -3.872478|   -3.253111|    0.005226|   -1.712474|
|           0|         253|   -3.867144|   -3.241027|    0.006028|   -1.869581|
|           0|         254|   -3.861357|   -3.229081|    0.006805|   -2.023980|
|           0|         255|   -3.856165|   -3.217209|    0.007616|   -2.175116|
|           0|         256|   -3.851500|   -3.205018|    0.008386|   -2.322359|
|           0|         257|   -3.846933|   -3.193100|    0.009106|   -2.465012|
|           0|         258|   -3.843289|   -3.181125|    0.009775|   -2.602270|
|           0|         259|   -3.840225|   -3.168935|    0.010372|   -2.733206|
|           0|         260|   -3.837399|   -3.157028|    0.010883|   -2.856765|
|           0|         261|   -3.835630|   -3.145047|    0.011299|   -2.971766|
|           0|         262|   -3.834520|   -3.132920|    0.011620|   -3.076907|
|           0|         263|   -3.833836|   -3.121093|    0.011827|   -3.170799|
|           0|         264|   -3.833996|   -3.109194|    0.011909|   -3.251998|
|           0|         265|   -3.834616|   -3.097211|    0.011869|   -3.319049|
|           0|         266|   -3.835545|   -3.085536|    0.011709|   -3.370535|
|           0|         267|   -3.836986|   -3.073823|    0.011427|   -3.405128|
|           0|         268|   -3.838559|   -3.062036|    0.011029|   -3.421648|
|           0|         269|   -3.840228|   -3.050553|    0.010524|   -3.419107|
|           0|         270|   -3.841845|   -3.039070|    0.009918|   -3.396750|
|           0|         271|   -3.843225|   -3.027486|    0.009217|   -3.354100|
|           0|         272|   -3.844530|   -3.016174|    0.008445|   -3.290966|
|           0|         273|   -3.845145|   -3.004924|    0.007628|   -3.207445|
|           0|         274|   -3.845106|   -2.993534|    0.006787|   -3.103929|
|           0|         275|   -3.844864|   -2.982334|    0.005945|   -2.981101|
|           0|         276|   -3.843628|   -2.971300|    0.005135|   -2.839912|
|           0|         277|   -3.841630|   -2.960104|    0.004373|   -2.681536|
|           0|         278|   -3.839540|   -2.948953|    0.003703|   -2.507328|
|           0|         279|   -3.836341|   -2.938094|    0.003129|   -2.318866|
|           0|         280|   -3.832750|   -2.927083|    0.002669|   -2.117827|
|           0|         281|   -3.829431|   -2.915978|    0.002289|   -1.906065|
|           0|         282|   -3.824897|   -2.905200|    0.001993|   -1.685367|
|           0|         283|   -3.820887|   -2.894342|    0.001768|   -1.457611|
|           0|         284|   -3.817325|   -2.883298|    0.001687|   -1.224632|
|           0|         285|   -3.812791|   -2.872475|    0.001767|   -0.988111|
|           0|         286|   -3.809508|   -2.861739|    0.002099|   -0.749614|
|           0|         287|   -3.806594|   -2.850746|    0.002647|   -0.510699|
|           0|         288|   -3.803131|   -2.839868|    0.003278|   -0.273323|
|           0|         289|   -3.801241|   -2.829232|    0.003959|   -0.039551|
|           0|         290|   -3.799601|   -2.818422|    0.004750|    0.188235|
|           0|         291|   -3.797647|   -2.807543|    0.005454|    0.408940|
|           0|         292|   -3.797287|   -2.796866|    0.006209|    0.621883|
|           0|         293|   -3.796846|   -2.786237|    0.006899|    0.826188|
|           0|         294|   -3.796752|   -2.775426|    0.007568|    1.020610|
|           0|         295|   -3.797586|   -2.764644|    0.008232|    1.204099|
|           0|         296|   -3.798059|   -2.754170|    0.008859|    1.375971|
|           0|         297|   -3.799054|   -2.743571|    0.009440|    1.535577|
|           0|         298|   -3.799809|   -2.732834|    0.009951|    1.682489|
|           0|         299|   -3.800443|   -2.722348|    0.010375|    1.816460|
|           0|         300|   -3.801146|   -2.712016|    0.010686|    1.937342|
|           0|         301|   -3.801151|   -2.701382|    0.010882|    2.045096|
|           0|         302|   -3.801444|   -2.690855|    0.010957|    2.139855|
|           0|         303|   -3.800395|   -2.680611|    0.010920|    2.221913|
|           0|         304|   -3.799898|   -2.670301|    0.010791|    2.291736|
|           0|         305|   -3.798050|   -2.659828|    0.010581|    2.349957|
|           0|         306|   -3.795898|   -2.649438|    0.010302|    2.397376|
|           0|         307|   -3.794002|   -2.639400|    0.009969|    2.434942|
|           0|         308|   -3.790434|   -2.629103|    0.009602|    2.463733|
|           0|         309|   -3.787799|   -2.618730|    0.009216|    2.484942|
|           0|         310|   -3.784330|   -2.608562|    0.008832|    2.499843|
|           0|         311|   -3.781336|   -2.598581|    0.008471|    2.509765|
|           0|         312|   -3.777960|   -2.588280|    0.008131|    2.516050|
|           0|         313|   -3.775435|   -2.577986|    0.007810|    2.520023|
|           0|         314|   -3.771921|   -2.568005|    0.007521|    2.522955|
|           0|         315|   -3.770047|   -2.558081|    0.007288|    2.526019|
|           0|         316|   -3.767530|   -2.547850|    0.007140|    2.530251|
|           0|         317|   -3.766064|   -2.537607|    0.007104|    2.536512|
|           0|         318|   -3.764881|   -2.527782|    0.007186|    2.545469|
|           0|         319|   -3.764524|   -2.517926|    0.007371|    2.557560|
|           0|         320|   -3.764423|   -2.507761|    0.007641|    2.572997|
|           0|         321|   -3.763987|   -2.497680|    0.007981|    2.591758|
|           0|         322|   -3.765011|   -2.487954|    0.008403|    2.613588|
|           0|         323|   -3.766873|   -2.478164|    0.008861|    2.638021|
|           0|         324|   -3.767534|   -2.468107|    0.009352|    2.664394|
|           0|         325|   -3.767948|   -2.458183|    0.009873|    2.691885|
|           0|         326|   -3.770549|   -2.448631|    0.010394|    2.719554|
|           0|         327|   -3.771781|   -2.438970|    0.010896|    2.746372|
|           0|         328|   -3.773179|   -2.429038|    0.011373|    2.771261|
|           0|         329|   -3.773844|   -2.419255|    0.011806|    2.793145|
|           0|         330|   -3.774666|   -2.409894|    0.012201|    2.810973|
|           0|         331|   -3.775408|   -2.400361|    0.012549|    2.823771|
|           0|         332|   -3.776212|   -2.390525|    0.012845|    2.830677|
|           0|         333|   -3.775274|   -2.380949|    0.013084|    2.830955|
|           0|         334|   -3.774760|   -2.371686|    0.013293|    2.824019|
|           0|         335|   -3.773894|   -2.362263|    0.013459|    2.809404|
|           0|         336|   -3.774319|   -2.352629|    0.013594|    2.786807|
|           0|         337|   -3.771799|   -2.343224|    0.013701|    2.756158|
|           0|         338|   -3.769782|   -2.333946|    0.013802|    2.717499|
|           0|         339|   -3.769219|   -2.324783|    0.013876|    2.671099|
|           0|         340|   -3.769441|   -2.315319|    0.013969|    2.617377|
|           0|         341|   -3.767010|   -2.306003|    0.014076|    2.556913|
|           0|         342|   -3.765003|   -2.296758|    0.014194|    2.490430|
|           0|         343|   -3.765447|   -2.287786|    0.014283|    2.418666|
|           0|         344|   -3.765107|   -2.278551|    0.014327|    2.342472|
|           0|         345|   -3.764060|   -2.269256|    0.014313|    2.262749|
|           0|         346|   -3.763425|   -2.260161|    0.014239|    2.180347|
|           0|         347|   -3.765259|   -2.251355|    0.014115|    2.096149|
|           0|         348|   -3.766309|   -2.242439|    0.013901|    2.011073|
|           0|         349|   -3.765556|   -2.233384|    0.013588|    1.925953|
|           0|         350|   -3.766858|   -2.224471|    0.013193|    1.841626|
|           0|         351|   -3.768313|   -2.215684|    0.012727|    1.758864|
|           0|         352|   -3.770577|   -2.207132|    0.012288|    1.678280|
|           0|         353|   -3.770026|   -2.198377|    0.011880|    1.600398|
|           0|         354|   -3.771316|   -2.189606|    0.011451|    1.525560|
|           0|         355|   -3.771037|   -2.181023|    0.010954|    1.453961|
|           0|         356|   -3.773759|   -2.172593|    0.010531|    1.385615|
|           0|         357|   -3.772644|   -2.164327|    0.010198|    1.320540|
|           0|         358|   -3.773995|   -2.155963|    0.009946|    1.258458|
|           0|         359|   -3.772876|   -2.147697|    0.009954|    1.198990|
|           0|         360|   -3.774186|   -2.139511|    0.010185|    1.141904|
|           0|         361|   -3.774651|   -2.131649|    0.010555|    1.086922|
|           0|         362|   -3.775231|   -2.123808|    0.010998|    1.033399|
|           0|         363|   -3.775176|   -2.115913|    0.011415|    0.980418|
|           0|         364|   -3.774311|   -2.108220|    0.011853|    0.927078|
|           0|         365|   -3.776755|   -2.100540|    0.012389|    0.872552|
|           0|         366|   -3.776810|   -2.093222|    0.012942|    0.815980|
|           0|         367|   -3.777680|   -2.085934|    0.013488|    0.756709|
|           0|         368|   -3.778417|   -2.078793|    0.013902|    0.694084|
|           0|         369|   -3.779821|   -2.071846|    0.014181|    0.627339|
|           0|         370|   -3.780640|   -2.065066|    0.014296|    0.555697|
|           0|         371|   -3.783516|   -2.058501|    0.014322|    0.478834|
|           0|         372|   -3.785929|   -2.052144|    0.014341|    0.396471|
|           0|         373|   -3.787073|   -2.045946|    0.014249|    0.308430|
|           0|         374|   -3.791586|   -2.040019|    0.014039|    0.214862|
|           0|         375|   -3.795492|   -2.034271|    0.013736|    0.116039|
|           0|         376|   -3.798965|   -2.028677|    0.013321|    0.012360|
|           0|         377|   -3.802168|   -2.023287|    0.012841|   -0.095550|
|           0|         378|   -3.806269|   -2.018059|    0.012332|   -0.206850|
|           0|         379|   -3.810056|   -2.013008|    0.011819|   -0.320470|
|           0|         380|   -3.815369|   -2.008226|    0.011336|   -0.435093|
|           0|         381|   -3.820213|   -2.003525|    0.010894|   -0.549307|
|           0|         382|   -3.824926|   -1.999072|    0.010525|   -0.661564|
|           0|         383|   -3.830623|   -1.994645|    0.010203|   -0.770265|
|           0|         384|   -3.831905|   -1.990297|    0.009970|   -0.873793|
|           0|         385|   -3.837197|   -1.986196|    0.009804|   -0.970478|
|           0|         386|   -3.841239|   -1.982293|    0.009700|   -1.058638|
|           0|         387|   -3.847863|   -1.978570|    0.009654|   -1.136638|
|           0|         388|   -3.851760|   -1.974894|    0.009655|   -1.202922|
|           0|         389|   -3.855085|   -1.971215|    0.009710|   -1.256060|
|           0|         390|   -3.856511|   -1.967586|    0.009811|   -1.294760|
|           0|         391|   -3.861649|   -1.964135|    0.009955|   -1.317893|
|           0|         392|   -3.865113|   -1.960776|    0.010151|   -1.324518|
|           0|         393|   -3.867173|   -1.957501|    0.010382|   -1.313902|
|           0|         394|   -3.871793|   -1.954203|    0.010642|   -1.285566|
|           0|         395|   -3.873974|   -1.950930|    0.010919|   -1.239280|
|           0|         396|   -3.878991|   -1.947622|    0.011206|   -1.175093|
|           0|         397|   -3.882798|   -1.944326|    0.011500|   -1.093358|
|           0|         398|   -3.886402|   -1.941097|    0.011803|   -0.994721|
|           0|         399|   -3.887494|   -1.937835|    0.012109|   -0.880092|
|           0|         400|   -3.890813|   -1.934519|    0.012426|   -0.750689|
|           0|         401|   -3.893252|   -1.931149|    0.012778|   -0.608020|
|           0|         402|   -3.894177|   -1.927763|    0.013147|   -0.453797|
|           0|         403|   -3.896767|   -1.924350|    0.013488|   -0.289835|
|           0|         404|   -3.902300|   -1.920882|    0.013804|   -0.117746|
|           0|         405|   -3.903807|   -1.917221|    0.014115|    0.060723|
|           0|         406|   -3.904395|   -1.913426|    0.014357|    0.242990|
|           0|         407|   -3.906183|   -1.909562|    0.014633|    0.426014|
|           0|         408|   -3.907820|   -1.905673|    0.014956|    0.607199|
|           0|         409|   -3.909126|   -1.901800|    0.015333|    0.784495|
|           0|         410|   -3.909819|   -1.897877|    0.015705|    0.956083|
|           0|         411|   -3.910554|   -1.893766|    0.016035|    1.120255|
|           0|         412|   -3.911287|   -1.889521|    0.016277|    1.275407|
|           0|         413|   -3.911440|   -1.885220|    0.016458|    1.420153|
|           0|         414|   -3.912381|   -1.880896|    0.016560|    1.553382|
|           0|         415|   -3.914302|   -1.876631|    0.016639|    1.674184|
|           0|         416|   -3.914707|   -1.872321|    0.016703|    1.782012|
|           0|         417|   -3.913882|   -1.867908|    0.016738|    1.876634|
|           0|         418|   -3.913017|   -1.863446|    0.016736|    1.958104|
|           0|         419|   -3.913173|   -1.858953|    0.016698|    2.026769|
|           0|         420|   -3.914581|   -1.854527|    0.016625|    2.083234|
|           0|         421|   -3.916951|   -1.850127|    0.016530|    2.128323|
|           0|         422|   -3.917093|   -1.845677|    0.016426|    2.163064|
|           0|         423|   -3.916332|   -1.841194|    0.016316|    2.188647|
|           0|         424|   -3.915480|   -1.836722|    0.016212|    2.206370|
|           0|         425|   -3.915430|   -1.832303|    0.016113|    2.217580|
|           0|         426|   -3.916607|   -1.827929|    0.016041|    2.223628|
|           0|         427|   -3.918719|   -1.823627|    0.015986|    2.225832|
|           0|         428|   -3.921621|   -1.819345|    0.015965|    2.225434|
|           0|         429|   -3.921487|   -1.815108|    0.015960|    2.223534|
|           0|         430|   -3.920738|   -1.810868|    0.015971|    2.221076|
|           0|         431|   -3.920308|   -1.806669|    0.015994|    2.218809|
|           0|         432|   -3.919590|   -1.802550|    0.016030|    2.217277|
|           0|         433|   -3.921080|   -1.798547|    0.016067|    2.216803|
|           0|         434|   -3.923964|   -1.794610|    0.016091|    2.217489|
|           0|         435|   -3.925915|   -1.790719|    0.016105|    2.219204|
|           0|         436|   -3.926611|   -1.786895|    0.016101|    2.221627|
|           0|         437|   -3.927724|   -1.783111|    0.016068|    2.224259|
|           0|         438|   -3.927546|   -1.779374|    0.016009|    2.226456|
|           0|         439|   -3.926430|   -1.775723|    0.015915|    2.227451|
|           0|         440|   -3.926899|   -1.772193|    0.015804|    2.226387|
|           0|         441|   -3.928559|   -1.768745|    0.015665|    2.222380|
|           0|         442|   -3.931667|   -1.765362|    0.015509|    2.214547|
|           0|         443|   -3.932554|   -1.762067|    0.015342|    2.202033|
|           0|         444|   -3.933799|   -1.758800|    0.015182|    2.184068|
|           0|         445|   -3.936220|   -1.755559|    0.015023|    2.160012|
|           0|         446|   -3.937803|   -1.752422|    0.014872|    2.129375|
|           0|         447|   -3.940192|   -1.749416|    0.014722|    2.091859|
|           0|         448|   -3.941242|   -1.746490|    0.014599|    2.047336|
|           0|         449|   -3.940626|   -1.743626|    0.014487|    1.995890|
|           0|         450|   -3.940067|   -1.740811|    0.014391|    1.937820|
|           0|         451|   -3.940982|   -1.738020|    0.014314|    1.873608|
|           0|         452|   -3.942190|   -1.735304|    0.014296|    1.803995|
|           0|         453|   -3.944398|   -1.732675|    0.014315|    1.729915|
|           0|         454|   -3.948033|   -1.730143|    0.014368|    1.652409|
|           0|         455|   -3.951176|   -1.727674|    0.014426|    1.572698|
|           0|         456|   -3.953652|   -1.725282|    0.014476|    1.491988|
|           0|         457|   -3.955071|   -1.722939|    0.014519|    1.411549|
|           0|         458|   -3.957385|   -1.720613|    0.014614|    1.332734|
|           0|         459|   -3.959342|   -1.718338|    0.014814|    1.256872|
|           0|         460|   -3.959782|   -1.716145|    0.014999|    1.185195|
|           0|         461|   -3.961719|   -1.714013|    0.015128|    1.118882|
|           0|         462|   -3.963512|   -1.711970|    0.015153|    1.058967|
|           0|         463|   -3.963473|   -1.709996|    0.015066|    1.006236|
|           0|         464|   -3.964137|   -1.708067|    0.014906|    0.961310|
|           0|         465|   -3.964880|   -1.706157|    0.014706|    0.924619|
|           0|         466|   -3.966845|   -1.704280|    0.014481|    0.896376|
|           0|         467|   -3.969151|   -1.702435|    0.014254|    0.876571|
|           0|         468|   -3.974178|   -1.700652|    0.014036|    0.864958|
|           0|         469|   -3.978907|   -1.698952|    0.013820|    0.861003|
|           0|         470|   -3.980039|   -1.697346|    0.013614|    0.863960|
|           0|         471|   -3.983430|   -1.695766|    0.013432|    0.872870|
|           0|         472|   -3.985703|   -1.694188|    0.013263|    0.886532|
|           0|         473|   -3.986860|   -1.692613|    0.013170|    0.903648|
|           0|         474|   -3.988619|   -1.691060|    0.013195|    0.922971|
|           0|         475|   -3.992260|   -1.689564|    0.013372|    0.943182|
|           0|         476|   -3.994737|   -1.688132|    0.013629|    0.962909|
|           0|         477|   -3.996221|   -1.686787|    0.013979|    0.980783|
|           0|         478|   -3.998880|   -1.685445|    0.014376|    0.995501|
|           0|         479|   -4.000989|   -1.684092|    0.014815|    1.005852|
|           0|         480|   -4.001012|   -1.682743|    0.015231|    1.010798|
|           0|         481|   -4.000507|   -1.681399|    0.015554|    1.009779|
|           0|         482|   -4.002467|   -1.680082|    0.015793|    1.002433|
|           0|         483|   -4.005924|   -1.678841|    0.015984|    0.988395|
|           0|         484|   -4.008546|   -1.677665|    0.016076|    0.967418|
|           0|         485|   -4.010878|   -1.676479|    0.016142|    0.939416|
|           0|         486|   -4.015662|   -1.675281|    0.016126|    0.904529|
|           0|         487|   -4.019445|   -1.674061|    0.016072|    0.862732|
|           0|         488|   -4.022031|   -1.672834|    0.015963|    0.814280|
|           0|         489|   -4.024354|   -1.671630|    0.015808|    0.759893|
|           0|         490|   -4.026625|   -1.670464|    0.015555|    0.700392|
|           0|         491|   -4.029747|   -1.669346|    0.015179|    0.636684|
|           0|         492|   -4.030916|   -1.668212|    0.014693|    0.569752|
|           0|         493|   -4.034303|   -1.667053|    0.014109|    0.500644|
|           0|         494|   -4.037254|   -1.665895|    0.013511|    0.430435|
|           0|         495|   -4.038857|   -1.664725|    0.012849|    0.360158|
|           0|         496|   -4.042695|   -1.663540|    0.012131|    0.290792|
|           0|         497|   -4.046003|   -1.662386|    0.011355|    0.223244|
|           0|         498|   -4.045865|   -1.661251|    0.010539|    0.158383|
|           0|         499|   -4.049156|   -1.660096|    0.009747|    0.097013|
|           0|         500|   -4.052748|   -1.658920|    0.009007|    0.039851|
+-----------------------------------------------------------------------+
|        File Writing Summary       |              Filename             |
+-----------------------------------------------------------------------+
|SU2 binary restart                 |restart_flow.dat                   |
|SU2 ASCII restart                  |restart_flow.csv                   |
|Paraview                           |flow.vtu                           |
|Paraview surface                   |surface_flow.vtu                   |
+-----------------------------------------------------------------------+
+-----------------------------------------------------------------------------+
|   Time_Iter|  Inner_Iter|    rms[Rho]|     rms[nu]|          CL|          CD|
+-----------------------------------------------------------------------------+
|           0|         501|   -4.055036|   -1.657728|    0.008356|   -0.012472|
|           0|         502|   -4.053022|   -1.656528|    0.007847|   -0.059431|
|           0|         503|   -4.054166|   -1.655326|    0.007490|   -0.100602|
|           0|         504|   -4.057063|   -1.654123|    0.007303|   -0.135667|
|           0|         505|   -4.059902|   -1.652908|    0.007305|   -0.164409|
|           0|         506|   -4.062345|   -1.651663|    0.007510|   -0.186711|
|           0|         507|   -4.065438|   -1.650399|    0.007920|   -0.202548|
|           0|         508|   -4.068564|   -1.649115|    0.008512|   -0.211977|
|           0|         509|   -4.070877|   -1.647826|    0.009276|   -0.215116|
|           0|         510|   -4.074686|   -1.646530|    0.010194|   -0.212143|
|           0|         511|   -4.076823|   -1.645212|    0.011222|   -0.203284|
|           0|         512|   -4.078929|   -1.643886|    0.012320|   -0.188782|
|           0|         513|   -4.080107|   -1.642518|    0.013469|   -0.168911|
|           0|         514|   -4.084608|   -1.641125|    0.014665|   -0.143959|
|           0|         515|   -4.088339|   -1.639730|    0.015873|   -0.114225|
|           0|         516|   -4.087889|   -1.638310|    0.017068|   -0.080010|
|           0|         517|   -4.091674|   -1.636890|    0.018238|   -0.041602|
|           0|         518|   -4.096440|   -1.635463|    0.019369|    0.000684|
|           0|         519|   -4.099280|   -1.634030|    0.020428|    0.046516|
|           0|         520|   -4.101542|   -1.632563|    0.021433|    0.095606|
|           0|         521|   -4.101737|   -1.631071|    0.022348|    0.147732|
|           0|         522|   -4.105239|   -1.629580|    0.023162|    0.202584|
|           0|         523|   -4.109056|   -1.628081|    0.023794|    0.259914|
|           0|         524|   -4.110781|   -1.626584|    0.024197|    0.319460|
|           0|         525|   -4.114522|   -1.625084|    0.024575|    0.380984|
|           0|         526|   -4.116948|   -1.623581|    0.024894|    0.444217|
|           0|         527|   -4.117416|   -1.622058|    0.025059|    0.508833|
|           0|         528|   -4.118058|   -1.620526|    0.025013|    0.574536|
|           0|         529|   -4.121225|   -1.618995|    0.024782|    0.641035|
|           0|         530|   -4.127916|   -1.617462|    0.024269|    0.707642|
|           0|         531|   -4.131578|   -1.615936|    0.023595|    0.773646|
|           0|         532|   -4.131510|   -1.614412|    0.022913|    0.838805|
|           0|         533|   -4.130363|   -1.612894|    0.022191|    0.903070|
|           0|         534|   -4.128852|   -1.611367|    0.021369|    0.966250|
|           0|         535|   -4.131287|   -1.609832|    0.020408|    1.027962|
|           0|         536|   -4.136789|   -1.608303|    0.019325|    1.087847|
|           0|         537|   -4.140598|   -1.606781|    0.018202|    1.145643|
|           0|         538|   -4.143963|   -1.605262|    0.017055|    1.201120|
|           0|         539|   -4.142236|   -1.603747|    0.015910|    1.254060|
|           0|         540|   -4.141493|   -1.602247|    0.014770|    1.304260|
|           0|         541|   -4.145008|   -1.600748|    0.013636|    1.351537|
|           0|         542|   -4.149431|   -1.599242|    0.012500|    1.395727|
|           0|         543|   -4.154104|   -1.597752|    0.011375|    1.436704|
|           0|         544|   -4.158115|   -1.596274|    0.010296|    1.474374|
|           0|         545|   -4.155654|   -1.594794|    0.009291|    1.508661|
|           0|         546|   -4.152945|   -1.593322|    0.008379|    1.539509|
|           0|         547|   -4.157909|   -1.591861|    0.007566|    1.566891|
|           0|         548|   -4.164479|   -1.590404|    0.006869|    1.590801|
|           0|         549|   -4.168251|   -1.588952|    0.006300|    1.611260|
|           0|         550|   -4.170086|   -1.587512|    0.005875|    1.628305|
|           0|         551|   -4.168176|   -1.586088|    0.005601|    1.641994|
|           0|         552|   -4.168528|   -1.584667|    0.005483|    1.652395|
|           0|         553|   -4.171464|   -1.583252|    0.005525|    1.659591|
|           0|         554|   -4.177577|   -1.581848|    0.005722|    1.663675|
|           0|         555|   -4.179865|   -1.580454|    0.006067|    1.664753|
|           0|         556|   -4.181742|   -1.579064|    0.006554|    1.662939|
|           0|         557|   -4.183216|   -1.577679|    0.007179|    1.658359|
|           0|         558|   -4.184165|   -1.576309|    0.007932|    1.651147|
|           0|         559|   -4.187138|   -1.574953|    0.008802|    1.641448|
|           0|         560|   -4.189303|   -1.573608|    0.009769|    1.629423|
|           0|         561|   -4.190646|   -1.572271|    0.010813|    1.615244|
|           0|         562|   -4.193419|   -1.570948|    0.011923|    1.599098|
|           0|         563|   -4.196374|   -1.569635|    0.013079|    1.581186|
|           0|         564|   -4.198327|   -1.568330|    0.014270|    1.561724|
|           0|         565|   -4.199924|   -1.567029|    0.015485|    1.540943|
|           0|         566|   -4.200812|   -1.565742|    0.016701|    1.519084|
|           0|         567|   -4.202612|   -1.564465|    0.017900|    1.496395|
|           0|         568|   -4.204621|   -1.563195|    0.019072|    1.473134|
|           0|         569|   -4.204778|   -1.561937|    0.020209|    1.449560|
|           0|         570|   -4.206585|   -1.560691|    0.021295|    1.425938|
|           0|         571|   -4.207681|   -1.559454|    0.022300|    1.402526|
|           0|         572|   -4.208846|   -1.558225|    0.023212|    1.379574|
|           0|         573|   -4.208126|   -1.557006|    0.024040|    1.357315|
|           0|         574|   -4.206969|   -1.555798|    0.024773|    1.335960|
|           0|         575|   -4.208267|   -1.554590|    0.025393|    1.315691|
|           0|         576|   -4.209510|   -1.553381|    0.025880|    1.296653|
|           0|         577|   -4.208814|   -1.552183|    0.026231|    1.278958|
|           0|         578|   -4.205580|   -1.550991|    0.026430|    1.262668|
|           0|         579|   -4.203775|   -1.549803|    0.026470|    1.247803|
|           0|         580|   -4.198710|   -1.548622|    0.026347|    1.234331|
|           0|         581|   -4.191998|   -1.547448|    0.026071|    1.222169|
|           0|         582|   -4.184706|   -1.546282|    0.025647|    1.211178|
|           0|         583|   -4.188402|   -1.545122|    0.025093|    1.201168|
|           0|         584|   -4.192999|   -1.543965|    0.024423|    1.191900|
|           0|         585|   -4.189135|   -1.542804|    0.023658|    1.183091|
|           0|         586|   -4.183965|   -1.541641|    0.022824|    1.174422|
|           0|         587|   -4.191119|   -1.540478|    0.021955|    1.165551|
|           0|         588|   -4.198889|   -1.539312|    0.021065|    1.156133|
|           0|         589|   -4.195976|   -1.538144|    0.020175|    1.145822|
|           0|         590|   -4.192446|   -1.536973|    0.019273|    1.134267|
|           0|         591|   -4.190562|   -1.535801|    0.018347|    1.121143|
|           0|         592|   -4.197875|   -1.534629|    0.017404|    1.106143|
|           0|         593|   -4.185748|   -1.533457|    0.016489|    1.088948|
|           0|         594|   -4.186168|   -1.532278|    0.015696|    1.069254|
|           0|         595|   -4.182763|   -1.531089|    0.014995|    1.046846|
|           0|         596|   -4.198156|   -1.529892|    0.014390|    1.021604|
|           0|         597|   -4.199963|   -1.528691|    0.013834|    0.993495|
|           0|         598|   -4.197234|   -1.527483|    0.013400|    0.962550|
|           0|         599|   -4.182830|   -1.526266|    0.013020|    0.928966|
|           0|         600|   -4.167652|   -1.525041|    0.012651|    0.892759|
|           0|         601|   -4.170778|   -1.523810|    0.012262|    0.854431|
|           0|         602|   -4.165625|   -1.522572|    0.011900|    0.814613|
|           0|         603|   -4.182187|   -1.521325|    0.011678|    0.773768|
|           0|         604|   -4.194205|   -1.520061|    0.011499|    0.732280|
|           0|         605|   -4.193134|   -1.518783|    0.011253|    0.690220|
|           0|         606|   -4.189987|   -1.517492|    0.011062|    0.647909|
|           0|         607|   -4.186572|   -1.516188|    0.010963|    0.605778|
|           0|         608|   -4.202822|   -1.514875|    0.010910|    0.564101|
|           0|         609|   -4.197074|   -1.513560|    0.010902|    0.523204|
|           0|         610|   -4.191747|   -1.512238|    0.010959|    0.483591|
|           0|         611|   -4.183488|   -1.510907|    0.011101|    0.445716|
|           0|         612|   -4.182159|   -1.509566|    0.011378|    0.410006|
|           0|         613|   -4.167559|   -1.508206|    0.011638|    0.376842|
|           0|         614|   -4.156562|   -1.506828|    0.011915|    0.346551|
|           0|         615|   -4.172111|   -1.505433|    0.012214|    0.319392|
|           0|         616|   -4.185706|   -1.504025|    0.012556|    0.295571|
|           0|         617|   -4.188708|   -1.502607|    0.012937|    0.275249|
|           0|         618|   -4.194465|   -1.501184|    0.013381|    0.258550|
|           0|         619|   -4.198472|   -1.499758|    0.013936|    0.245562|
|           0|         620|   -4.195759|   -1.498328|    0.014567|    0.236333|
|           0|         621|   -4.168514|   -1.496891|    0.015206|    0.230866|
|           0|         622|   -4.146360|   -1.495435|    0.015832|    0.229126|
|           0|         623|   -4.142344|   -1.493961|    0.016444|    0.231037|
|           0|         624|   -4.149250|   -1.492474|    0.017029|    0.236496|
|           0|         625|   -4.153906|   -1.490978|    0.017585|    0.245359|
|           0|         626|   -4.164349|   -1.489476|    0.018083|    0.257455|
|           0|         627|   -4.168764|   -1.487970|    0.018498|    0.272587|
|           0|         628|   -4.162828|   -1.486460|    0.018823|    0.290546|
|           0|         629|   -4.163551|   -1.484946|    0.019043|    0.311104|
|           0|         630|   -4.139581|   -1.483425|    0.019178|    0.334023|
|           0|         631|   -4.133398|   -1.481891|    0.019231|    0.359060|
|           0|         632|   -4.147138|   -1.480350|    0.019193|    0.385960|
|           0|         633|   -4.131458|   -1.478803|    0.019078|    0.414473|
|           0|         634|   -4.109100|   -1.477247|    0.018912|    0.444354|
|           0|         635|   -4.139960|   -1.475687|    0.018753|    0.475364|
|           0|         636|   -4.180290|   -1.474124|    0.018588|    0.507255|
|           0|         637|   -4.171743|   -1.472559|    0.018425|    0.539831|
|           0|         638|   -4.175658|   -1.470990|    0.018279|    0.572966|
|           0|         639|   -4.150555|   -1.469416|    0.018167|    0.606528|
|           0|         640|   -4.120012|   -1.467839|    0.018178|    0.640399|
|           0|         641|   -4.143595|   -1.466259|    0.018214|    0.674435|
|           0|         642|   -4.150338|   -1.464676|    0.018305|    0.708381|
|           0|         643|   -4.156895|   -1.463090|    0.018345|    0.741871|
|           0|         644|   -4.147283|   -1.461501|    0.018308|    0.774625|
|           0|         645|   -4.166142|   -1.459913|    0.018231|    0.806571|
|           0|         646|   -4.191988|   -1.458325|    0.018193|    0.837722|
|           0|         647|   -4.177718|   -1.456737|    0.018209|    0.868097|
|           0|         648|   -4.185828|   -1.455147|    0.018278|    0.897676|
|           0|         649|   -4.188931|   -1.453559|    0.018363|    0.926430|
|           0|         650|   -4.165221|   -1.451973|    0.018425|    0.954264|
|           0|         651|   -4.154843|   -1.450389|    0.018436|    0.981046|
|           0|         652|   -4.140111|   -1.448806|    0.018411|    1.006683|
|           0|         653|   -4.105011|   -1.447222|    0.018348|    1.031132|
|           0|         654|   -4.087275|   -1.445638|    0.018255|    1.054364|
|           0|         655|   -4.105992|   -1.444057|    0.018142|    1.076359|
|           0|         656|   -4.122995|   -1.442480|    0.017998|    1.097112|
|           0|         657|   -4.118689|   -1.440909|    0.017808|    1.116633|
|           0|         658|   -4.117403|   -1.439343|    0.017574|    1.134934|
|           0|         659|   -4.129100|   -1.437781|    0.017307|    1.152034|
|           0|         660|   -4.168211|   -1.436222|    0.017018|    1.167967|
|           0|         661|   -4.174468|   -1.434668|    0.016700|    1.182775|
|           0|         662|   -4.148506|   -1.433115|    0.016365|    1.196511|
|           0|         663|   -4.117656|   -1.431564|    0.016025|    1.209228|
|           0|         664|   -4.136203|   -1.430018|    0.015685|    1.220982|
|           0|         665|   -4.153880|   -1.428478|    0.015356|    1.231823|
|           0|         666|   -4.180042|   -1.426946|    0.015052|    1.241800|
|           0|         667|   -4.196160|   -1.425421|    0.014794|    1.250953|
|           0|         668|   -4.161276|   -1.423902|    0.014604|    1.259313|
|           0|         669|   -4.141157|   -1.422387|    0.014500|    1.266907|
|           0|         670|   -4.175817|   -1.420878|    0.014504|    1.273753|
|           0|         671|   -4.149342|   -1.419374|    0.014621|    1.279864|
|           0|         672|   -4.102698|   -1.417874|    0.014846|    1.285247|
|           0|         673|   -4.085338|   -1.416381|    0.015176|    1.289910|
|           0|         674|   -4.104523|   -1.414896|    0.015599|    1.293857|
|           0|         675|   -4.138744|   -1.413418|    0.016101|    1.297099|
|           0|         676|   -4.144572|   -1.411945|    0.016660|    1.299646|
|           0|         677|   -4.146899|   -1.410477|    0.017254|    1.301520|
|           0|         678|   -4.158446|   -1.409014|    0.017854|    1.302746|
|           0|         679|   -4.159493|   -1.407558|    0.018433|    1.303360|
|           0|         680|   -4.175261|   -1.406108|    0.018961|    1.303406|
|           0|         681|   -4.164894|   -1.404664|    0.019419|    1.302936|
|           0|         682|   -4.143185|   -1.403223|    0.019786|    1.302009|
|           0|         683|   -4.151871|   -1.401790|    0.020057|    1.300691|
|           0|         684|   -4.138606|   -1.400361|    0.020226|    1.299051|
|           0|         685|   -4.137953|   -1.398936|    0.020295|    1.297160|
|           0|         686|   -4.166639|   -1.397515|    0.020272|    1.295091|
|           0|         687|   -4.188225|   -1.396100|    0.020175|    1.292907|
|           0|         688|   -4.198240|   -1.394687|    0.020025|    1.290665|
|           0|         689|   -4.198067|   -1.393277|    0.019843|    1.288406|
|           0|         690|   -4.201920|   -1.391870|    0.019651|    1.286151|
|           0|         691|   -4.183776|   -1.390465|    0.019476|    1.283896|
|           0|         692|   -4.179165|   -1.389063|    0.019336|    1.281614|
|           0|         693|   -4.210084|   -1.387662|    0.019249|    1.279247|
|           0|         694|   -4.218109|   -1.386264|    0.019226|    1.276709|
|           0|         695|   -4.222358|   -1.384867|    0.019279|    1.273888|
|           0|         696|   -4.184857|   -1.383471|    0.019409|    1.270642|
|           0|         697|   -4.175941|   -1.382073|    0.019601|    1.266808|
|           0|         698|   -4.178935|   -1.380675|    0.019828|    1.262199|
|           0|         699|   -4.190818|   -1.379277|    0.020075|    1.256614|
|           0|         700|   -4.181512|   -1.377877|    0.020328|    1.249844|
|           0|         701|   -4.150895|   -1.376474|    0.020560|    1.241677|
|           0|         702|   -4.117923|   -1.375069|    0.020747|    1.231902|
|           0|         703|   -4.110900|   -1.373662|    0.020853|    1.220320|
|           0|         704|   -4.134976|   -1.372253|    0.020838|    1.206762|
|           0|         705|   -4.131914|   -1.370840|    0.020670|    1.191078|
|           0|         706|   -4.167975|   -1.369423|    0.020342|    1.173151|
|           0|         707|   -4.181680|   -1.368003|    0.019873|    1.152891|
|           0|         708|   -4.195565|   -1.366579|    0.019330|    1.130225|
|           0|         709|   -4.204346|   -1.365148|    0.018824|    1.105098|
|           0|         710|   -4.192988|   -1.363711|    0.018289|    1.077512|
|           0|         711|   -4.200176|   -1.362268|    0.017693|    1.047549|
|           0|         712|   -4.185611|   -1.360819|    0.017081|    1.015392|
|           0|         713|   -4.137544|   -1.359364|    0.016537|    0.981262|
|           0|         714|   -4.153212|   -1.357903|    0.016153|    0.945360|
|           0|         715|   -4.190458|   -1.356436|    0.015858|    0.908010|
|           0|         716|   -4.215518|   -1.354961|    0.015670|    0.869445|
|           0|         717|   -4.225187|   -1.353478|    0.015580|    0.829982|
|           0|         718|   -4.221577|   -1.351986|    0.015568|    0.790210|
|           0|         719|   -4.214199|   -1.350485|    0.015688|    0.750638|
|           0|         720|   -4.191306|   -1.348974|    0.015858|    0.711595|
|           0|         721|   -4.188919|   -1.347452|    0.016093|    0.673391|
|           0|         722|   -4.172468|   -1.345923|    0.016401|    0.636441|
|           0|         723|   -4.167931|   -1.344384|    0.016759|    0.601018|
|           0|         724|   -4.174641|   -1.342835|    0.017090|    0.567274|
|           0|         725|   -4.190619|   -1.341276|    0.017334|    0.535419|
|           0|         726|   -4.206441|   -1.339706|    0.017511|    0.505771|
|           0|         727|   -4.237187|   -1.338123|    0.017569|    0.478619|
|           0|         728|   -4.206443|   -1.336529|    0.017503|    0.454204|
|           0|         729|   -4.183374|   -1.334923|    0.017357|    0.432709|
|           0|         730|   -4.180776|   -1.333304|    0.017186|    0.414236|
|           0|         731|   -4.180648|   -1.331673|    0.017016|    0.398837|
|           0|         732|   -4.198371|   -1.330028|    0.016799|    0.386510|
|           0|         733|   -4.219023|   -1.328371|    0.016505|    0.377213|
|           0|         734|   -4.225779|   -1.326700|    0.016127|    0.370873|
|           0|         735|   -4.230479|   -1.325017|    0.015658|    0.367389|
|           0|         736|   -4.214327|   -1.323321|    0.015171|    0.366638|
|           0|         737|   -4.198518|   -1.321611|    0.014734|    0.368474|
|           0|         738|   -4.198133|   -1.319886|    0.014375|    0.372734|
|           0|         739|   -4.193720|   -1.318145|    0.014099|    0.379248|
|           0|         740|   -4.182826|   -1.316387|    0.013918|    0.387839|
|           0|         741|   -4.202994|   -1.314614|    0.013860|    0.398319|
|           0|         742|   -4.223837|   -1.312826|    0.013933|    0.410502|
|           0|         743|   -4.237567|   -1.311024|    0.014151|    0.424197|
|           0|         744|   -4.246656|   -1.309209|    0.014512|    0.439219|
|           0|         745|   -4.249369|   -1.307380|    0.015004|    0.455381|
|           0|         746|   -4.236770|   -1.305536|    0.015617|    0.472508|
|           0|         747|   -4.225553|   -1.303677|    0.016346|    0.490426|
|           0|         748|   -4.212128|   -1.301801|    0.017120|    0.508998|
|           0|         749|   -4.203946|   -1.299909|    0.017907|    0.528096|
|           0|         750|   -4.201638|   -1.298000|    0.018711|    0.547626|
|           0|         751|   -4.230428|   -1.296076|    0.019505|    0.567511|
|           0|         752|   -4.236494|   -1.294137|    0.020233|    0.587689|
|           0|         753|   -4.232749|   -1.292183|    0.020876|    0.608119|
|           0|         754|   -4.247178|   -1.290214|    0.021335|    0.628767|
|           0|         755|   -4.232929|   -1.288231|    0.021634|    0.649579|
|           0|         756|   -4.220258|   -1.286234|    0.021814|    0.670520|
|           0|         757|   -4.219646|   -1.284225|    0.021818|    0.691532|
|           0|         758|   -4.210175|   -1.282200|    0.021655|    0.712543|
|           0|         759|   -4.211199|   -1.280159|    0.021278|    0.733535|
|           0|         760|   -4.223051|   -1.278104|    0.020745|    0.754533|
|           0|         761|   -4.225285|   -1.276033|    0.020105|    0.775573|
|           0|         762|   -4.230889|   -1.273946|    0.019399|    0.796671|
|           0|         763|   -4.243160|   -1.271847|    0.018654|    0.817813|
|           0|         764|   -4.256379|   -1.269737|    0.017877|    0.838973|
|           0|         765|   -4.249463|   -1.267617|    0.017124|    0.860089|
|           0|         766|   -4.231265|   -1.265487|    0.016377|    0.881095|
|           0|         767|   -4.223002|   -1.263345|    0.015665|    0.901894|
|           0|         768|   -4.231256|   -1.261189|    0.015035|    0.922393|
|           0|         769|   -4.229388|   -1.259019|    0.014515|    0.942504|
|           0|         770|   -4.231528|   -1.256835|    0.014108|    0.962153|
|           0|         771|   -4.226215|   -1.254639|    0.013828|    0.981273|
|           0|         772|   -4.221192|   -1.252435|    0.013673|    0.999800|
|           0|         773|   -4.221940|   -1.250222|    0.013645|    1.017673|
|           0|         774|   -4.239287|   -1.248001|    0.013721|    1.034831|
|           0|         775|   -4.249425|   -1.245772|    0.013887|    1.051216|
|           0|         776|   -4.230714|   -1.243536|    0.014148|    1.066774|
|           0|         777|   -4.221246|   -1.241291|    0.014504|    1.081464|
|           0|         778|   -4.224253|   -1.239034|    0.014925|    1.095251|
|           0|         779|   -4.216061|   -1.236764|    0.015382|    1.108113|
|           0|         780|   -4.200236|   -1.234487|    0.015845|    1.120037|
|           0|         781|   -4.208873|   -1.232202|    0.016292|    1.131018|
|           0|         782|   -4.228115|   -1.229912|    0.016696|    1.141060|
|           0|         783|   -4.230004|   -1.227617|    0.017036|    1.150179|
|           0|         784|   -4.216989|   -1.225317|    0.017291|    1.158396|
|           0|         785|   -4.224510|   -1.223012|    0.017451|    1.165741|
|           0|         786|   -4.233357|   -1.220702|    0.017515|    1.172247|
|           0|         787|   -4.245050|   -1.218383|    0.017486|    1.177954|
|           0|         788|   -4.241453|   -1.216059|    0.017379|    1.182904|
|           0|         789|   -4.244994|   -1.213728|    0.017207|    1.187143|
|           0|         790|   -4.249697|   -1.211395|    0.016992|    1.190720|
|           0|         791|   -4.248184|   -1.209059|    0.016767|    1.193681|
|           0|         792|   -4.256335|   -1.206721|    0.016564|    1.196077|
|           0|         793|   -4.261386|   -1.204381|    0.016414|    1.197953|
|           0|         794|   -4.252457|   -1.202038|    0.016347|    1.199355|
|           0|         795|   -4.247849|   -1.199690|    0.016383|    1.200326|
|           0|         796|   -4.250625|   -1.197339|    0.016537|    1.200908|
|           0|         797|   -4.251775|   -1.194986|    0.016815|    1.201138|
|           0|         798|   -4.240908|   -1.192631|    0.017215|    1.201048|
|           0|         799|   -4.245696|   -1.190275|    0.017723|    1.200665|
|           0|         800|   -4.250846|   -1.187919|    0.018320|    1.200009|
|           0|         801|   -4.246248|   -1.185563|    0.018977|    1.199094|
|           0|         802|   -4.227983|   -1.183212|    0.019665|    1.197926|
|           0|         803|   -4.228536|   -1.180862|    0.020352|    1.196499|
|           0|         804|   -4.237696|   -1.178513|    0.021001|    1.194802|
|           0|         805|   -4.242447|   -1.176163|    0.021582|    1.192813|
|           0|         806|   -4.241095|   -1.173812|    0.022063|    1.190495|
|           0|         807|   -4.235467|   -1.171465|    0.022430|    1.187801|
|           0|         808|   -4.242124|   -1.169122|    0.022660|    1.184671|
|           0|         809|   -4.248289|   -1.166786|    0.022741|    1.181035|
|           0|         810|   -4.243059|   -1.164458|    0.022672|    1.176810|
|           0|         811|   -4.239072|   -1.162136|    0.022453|    1.171900|
|           0|         812|   -4.247033|   -1.159819|    0.022093|    1.166203|
|           0|         813|   -4.242529|   -1.157509|    0.021610|    1.159610|
|           0|         814|   -4.232887|   -1.155204|    0.021033|    1.152009|
|           0|         815|   -4.240837|   -1.152900|    0.020394|    1.143292|
|           0|         816|   -4.253943|   -1.150597|    0.019712|    1.133354|
|           0|         817|   -4.250222|   -1.148299|    0.019003|    1.122099|
[...]
|           0|        9772|   -5.566283|   -2.073044|    0.010443|    1.151429|
|           0|        9773|   -5.585597|   -2.073245|    0.010443|    1.151432|
|           0|        9774|   -5.580902|   -2.073423|    0.010443|    1.151434|
|           0|        9775|   -5.569859|   -2.073680|    0.010444|    1.151437|
|           0|        9776|   -5.597890|   -2.073872|    0.010444|    1.151440|
|           0|        9777|   -5.569211|   -2.074110|    0.010445|    1.151443|
|           0|        9778|   -5.590435|   -2.074306|    0.010445|    1.151445|
|           0|        9779|   -5.582390|   -2.074488|    0.010446|    1.151448|
|           0|        9780|   -5.573093|   -2.074739|    0.010446|    1.151451|
|           0|        9781|   -5.599837|   -2.074925|    0.010447|    1.151453|
|           0|        9782|   -5.569536|   -2.075169|    0.010448|    1.151456|
|           0|        9783|   -5.590175|   -2.075375|    0.010448|    1.151459|
|           0|        9784|   -5.585933|   -2.075560|    0.010448|    1.151461|
|           0|        9785|   -5.570689|   -2.075798|    0.010449|    1.151464|
|           0|        9786|   -5.605007|   -2.075972|    0.010449|    1.151467|
|           0|        9787|   -5.564807|   -2.076225|    0.010449|    1.151469|
|           0|        9788|   -5.588594|   -2.076437|    0.010449|    1.151472|
|           0|        9789|   -5.584363|   -2.076623|    0.010449|    1.151475|
|           0|        9790|   -5.569361|   -2.076859|    0.010449|    1.151477|
|           0|        9791|   -5.611747|   -2.077020|    0.010449|    1.151480|
|           0|        9792|   -5.558816|   -2.077278|    0.010449|    1.151483|
|           0|        9793|   -5.591283|   -2.077487|    0.010449|    1.151485|
|           0|        9794|   -5.577634|   -2.077678|    0.010449|    1.151488|
|           0|        9795|   -5.568916|   -2.077916|    0.010449|    1.151491|
|           0|        9796|   -5.610624|   -2.078068|    0.010449|    1.151493|
|           0|        9797|   -5.556748|   -2.078326|    0.010449|    1.151496|
|           0|        9798|   -5.596857|   -2.078528|    0.010449|    1.151499|
|           0|        9799|   -5.569505|   -2.078733|    0.010449|    1.151501|
|           0|        9800|   -5.568371|   -2.078971|    0.010449|    1.151504|
|           0|        9801|   -5.606251|   -2.079118|    0.010449|    1.151506|
|           0|        9802|   -5.555921|   -2.079376|    0.010449|    1.151509|
|           0|        9803|   -5.602180|   -2.079569|    0.010449|    1.151512|
|           0|        9804|   -5.564653|   -2.079789|    0.010449|    1.151514|
|           0|        9805|   -5.571298|   -2.080018|    0.010449|    1.151517|
|           0|        9806|   -5.598807|   -2.080162|    0.010449|    1.151520|
|           0|        9807|   -5.557364|   -2.080425|    0.010449|    1.151522|
|           0|        9808|   -5.605817|   -2.080609|    0.010448|    1.151525|
|           0|        9809|   -5.560769|   -2.080844|    0.010448|    1.151528|
|           0|        9810|   -5.577000|   -2.081069|    0.010448|    1.151530|
|           0|        9811|   -5.588347|   -2.081214|    0.010448|    1.151533|
|           0|        9812|   -5.557888|   -2.081473|    0.010448|    1.151536|
|           0|        9813|   -5.606580|   -2.081648|    0.010448|    1.151539|
|           0|        9814|   -5.556465|   -2.081894|    0.010448|    1.151541|
|           0|        9815|   -5.582323|   -2.082120|    0.010448|    1.151544|
|           0|        9816|   -5.582801|   -2.082274|    0.010447|    1.151547|
|           0|        9817|   -5.556390|   -2.082530|    0.010447|    1.151550|
|           0|        9818|   -5.608671|   -2.082695|    0.010446|    1.151553|
|           0|        9819|   -5.555390|   -2.082945|    0.010446|    1.151555|
|           0|        9820|   -5.588949|   -2.083170|    0.010445|    1.151558|
|           0|        9821|   -5.579397|   -2.083338|    0.010445|    1.151561|
|           0|        9822|   -5.558925|   -2.083591|    0.010444|    1.151564|
|           0|        9823|   -5.611660|   -2.083747|    0.010443|    1.151567|
|           0|        9824|   -5.555936|   -2.084006|    0.010442|    1.151570|
|           0|        9825|   -5.597660|   -2.084224|    0.010442|    1.151573|
|           0|        9826|   -5.577942|   -2.084404|    0.010441|    1.151575|
|           0|        9827|   -5.563068|   -2.084659|    0.010440|    1.151578|
|           0|        9828|   -5.615851|   -2.084800|    0.010440|    1.151581|
|           0|        9829|   -5.556493|   -2.085069|    0.010439|    1.151584|
|           0|        9830|   -5.604211|   -2.085289|    0.010439|    1.151587|
|           0|        9831|   -5.578168|   -2.085472|    0.010438|    1.151590|
|           0|        9832|   -5.565110|   -2.085724|    0.010438|    1.151593|
|           0|        9833|   -5.616454|   -2.085857|    0.010438|    1.151596|
|           0|        9834|   -5.555970|   -2.086128|    0.010438|    1.151598|
|           0|        9835|   -5.609282|   -2.086344|    0.010437|    1.151601|
|           0|        9836|   -5.575232|   -2.086538|    0.010437|    1.151604|
|           0|        9837|   -5.563546|   -2.086784|    0.010437|    1.151607|
|           0|        9838|   -5.612765|   -2.086914|    0.010437|    1.151610|
|           0|        9839|   -5.555054|   -2.087186|    0.010437|    1.151613|
|           0|        9840|   -5.611353|   -2.087391|    0.010437|    1.151615|
|           0|        9841|   -5.570499|   -2.087595|    0.010437|    1.151618|
|           0|        9842|   -5.566331|   -2.087839|    0.010436|    1.151621|
|           0|        9843|   -5.609763|   -2.087964|    0.010436|    1.151624|
|           0|        9844|   -5.555020|   -2.088237|    0.010436|    1.151627|
|           0|        9845|   -5.612002|   -2.088440|    0.010436|    1.151629|
|           0|        9846|   -5.568057|   -2.088653|    0.010435|    1.151632|
|           0|        9847|   -5.572325|   -2.088888|    0.010435|    1.151635|
|           0|        9848|   -5.602972|   -2.089014|    0.010434|    1.151638|
|           0|        9849|   -5.558769|   -2.089287|    0.010434|    1.151640|
|           0|        9850|   -5.610000|   -2.089488|    0.010433|    1.151643|
|           0|        9851|   -5.568841|   -2.089707|    0.010433|    1.151646|
|           0|        9852|   -5.574383|   -2.089933|    0.010432|    1.151649|
|           0|        9853|   -5.595785|   -2.090062|    0.010432|    1.151651|
|           0|        9854|   -5.561636|   -2.090334|    0.010432|    1.151654|
|           0|        9855|   -5.609339|   -2.090533|    0.010431|    1.151657|
|           0|        9856|   -5.567246|   -2.090758|    0.010431|    1.151659|
|           0|        9857|   -5.578225|   -2.090977|    0.010431|    1.151662|
|           0|        9858|   -5.590073|   -2.091113|    0.010431|    1.151665|
|           0|        9859|   -5.561105|   -2.091386|    0.010431|    1.151667|
|           0|        9860|   -5.606920|   -2.091575|    0.010431|    1.151670|
|           0|        9861|   -5.564567|   -2.091808|    0.010431|    1.151673|
|           0|        9862|   -5.583522|   -2.092023|    0.010432|    1.151675|
|           0|        9863|   -5.587072|   -2.092162|    0.010432|    1.151678|
|           0|        9864|   -5.561601|   -2.092439|    0.010432|    1.151681|
|           0|        9865|   -5.604729|   -2.092622|    0.010432|    1.151683|
|           0|        9866|   -5.561787|   -2.092856|    0.010432|    1.151686|
|           0|        9867|   -5.588640|   -2.093067|    0.010432|    1.151689|
|           0|        9868|   -5.585206|   -2.093209|    0.010432|    1.151692|
|           0|        9869|   -5.565374|   -2.093486|    0.010432|    1.151694|
|           0|        9870|   -5.605799|   -2.093670|    0.010431|    1.151697|
|           0|        9871|   -5.559149|   -2.093912|    0.010431|    1.151700|
|           0|        9872|   -5.591333|   -2.094116|    0.010430|    1.151702|
|           0|        9873|   -5.583107|   -2.094259|    0.010429|    1.151705|
|           0|        9874|   -5.565700|   -2.094534|    0.010429|    1.151708|
|           0|        9875|   -5.607228|   -2.094718|    0.010428|    1.151711|
|           0|        9876|   -5.559779|   -2.094964|    0.010427|    1.151713|
|           0|        9877|   -5.592893|   -2.095167|    0.010427|    1.151716|
|           0|        9878|   -5.581376|   -2.095315|    0.010427|    1.151719|
|           0|        9879|   -5.565607|   -2.095590|    0.010426|    1.151722|
|           0|        9880|   -5.608489|   -2.095770|    0.010426|    1.151724|
|           0|        9881|   -5.560583|   -2.096015|    0.010426|    1.151727|
|           0|        9882|   -5.597565|   -2.096214|    0.010427|    1.151730|
|           0|        9883|   -5.580864|   -2.096369|    0.010427|    1.151733|
|           0|        9884|   -5.565616|   -2.096646|    0.010427|    1.151735|
|           0|        9885|   -5.605544|   -2.096820|    0.010428|    1.151738|
|           0|        9886|   -5.561180|   -2.097065|    0.010428|    1.151741|
|           0|        9887|   -5.600854|   -2.097259|    0.010428|    1.151743|
|           0|        9888|   -5.581590|   -2.097417|    0.010429|    1.151746|
|           0|        9889|   -5.568688|   -2.097695|    0.010429|    1.151749|
|           0|        9890|   -5.605119|   -2.097870|    0.010429|    1.151752|
|           0|        9891|   -5.561091|   -2.098117|    0.010430|    1.151754|
|           0|        9892|   -5.603897|   -2.098304|    0.010430|    1.151757|
|           0|        9893|   -5.580152|   -2.098468|    0.010430|    1.151760|
|           0|        9894|   -5.570542|   -2.098744|    0.010430|    1.151762|
|           0|        9895|   -5.605562|   -2.098915|    0.010430|    1.151765|
|           0|        9896|   -5.560229|   -2.099169|    0.010430|    1.151768|
|           0|        9897|   -5.606185|   -2.099354|    0.010430|    1.151771|
|           0|        9898|   -5.580447|   -2.099521|    0.010430|    1.151773|
|           0|        9899|   -5.574494|   -2.099796|    0.010430|    1.151776|
|           0|        9900|   -5.608803|   -2.099966|    0.010430|    1.151779|
|           0|        9901|   -5.563656|   -2.100222|    0.010429|    1.151781|
|           0|        9902|   -5.611639|   -2.100407|    0.010429|    1.151784|
|           0|        9903|   -5.580653|   -2.100580|    0.010429|    1.151787|
|           0|        9904|   -5.580668|   -2.100849|    0.010429|    1.151789|
|           0|        9905|   -5.608608|   -2.101016|    0.010428|    1.151792|
|           0|        9906|   -5.565925|   -2.101274|    0.010428|    1.151795|
|           0|        9907|   -5.617729|   -2.101451|    0.010428|    1.151798|
|           0|        9908|   -5.581031|   -2.101636|    0.010428|    1.151800|
|           0|        9909|   -5.588017|   -2.101905|    0.010427|    1.151803|
|           0|        9910|   -5.605709|   -2.102067|    0.010427|    1.151806|
|           0|        9911|   -5.566946|   -2.102328|    0.010427|    1.151808|
|           0|        9912|   -5.622106|   -2.102497|    0.010427|    1.151811|
|           0|        9913|   -5.576773|   -2.102687|    0.010426|    1.151814|
|           0|        9914|   -5.593527|   -2.102953|    0.010426|    1.151816|
|           0|        9915|   -5.603576|   -2.103115|    0.010426|    1.151819|
|           0|        9916|   -5.562701|   -2.103379|    0.010426|    1.151822|
|           0|        9917|   -5.623557|   -2.103535|    0.010425|    1.151824|
|           0|        9918|   -5.569011|   -2.103737|    0.010425|    1.151827|
|           0|        9919|   -5.598351|   -2.103994|    0.010425|    1.151830|
|           0|        9920|   -5.600254|   -2.104156|    0.010425|    1.151833|
|           0|        9921|   -5.557210|   -2.104425|    0.010425|    1.151835|
|           0|        9922|   -5.629156|   -2.104565|    0.010425|    1.151838|
|           0|        9923|   -5.558953|   -2.104788|    0.010425|    1.151841|
|           0|        9924|   -5.599233|   -2.105035|    0.010425|    1.151843|
|           0|        9925|   -5.594346|   -2.105186|    0.010424|    1.151846|
|           0|        9926|   -5.552669|   -2.105466|    0.010424|    1.151849|
|           0|        9927|   -5.631124|   -2.105598|    0.010424|    1.151852|
|           0|        9928|   -5.551249|   -2.105833|    0.010424|    1.151854|
|           0|        9929|   -5.601930|   -2.106068|    0.010424|    1.151857|
|           0|        9930|   -5.587293|   -2.106213|    0.010423|    1.151860|
|           0|        9931|   -5.546285|   -2.106501|    0.010423|    1.151862|
|           0|        9932|   -5.628801|   -2.106625|    0.010423|    1.151865|
|           0|        9933|   -5.543954|   -2.106872|    0.010422|    1.151868|
|           0|        9934|   -5.606217|   -2.107096|    0.010422|    1.151871|
|           0|        9935|   -5.579371|   -2.107247|    0.010422|    1.151873|
|           0|        9936|   -5.545365|   -2.107539|    0.010421|    1.151876|
|           0|        9937|   -5.622389|   -2.107658|    0.010421|    1.151879|
|           0|        9938|   -5.540901|   -2.107914|    0.010421|    1.151881|
|           0|        9939|   -5.610602|   -2.108127|    0.010421|    1.151884|
|           0|        9940|   -5.574933|   -2.108284|    0.010420|    1.151887|
|           0|        9941|   -5.548645|   -2.108577|    0.010420|    1.151889|
|           0|        9942|   -5.619127|   -2.108694|    0.010420|    1.151892|
|           0|        9943|   -5.538339|   -2.108958|    0.010420|    1.151895|
|           0|        9944|   -5.615509|   -2.109162|    0.010420|    1.151897|
|           0|        9945|   -5.571364|   -2.109326|    0.010420|    1.151900|
|           0|        9946|   -5.553622|   -2.109622|    0.010420|    1.151903|
|           0|        9947|   -5.617790|   -2.109735|    0.010420|    1.151905|
|           0|        9948|   -5.536132|   -2.110004|    0.010420|    1.151908|
|           0|        9949|   -5.622386|   -2.110203|    0.010420|    1.151911|
|           0|        9950|   -5.568534|   -2.110372|    0.010420|    1.151913|
|           0|        9951|   -5.557431|   -2.110666|    0.010420|    1.151916|
|           0|        9952|   -5.617335|   -2.110780|    0.010420|    1.151919|
|           0|        9953|   -5.533683|   -2.111055|    0.010420|    1.151921|
|           0|        9954|   -5.628862|   -2.111250|    0.010420|    1.151924|
|           0|        9955|   -5.564583|   -2.111427|    0.010420|    1.151927|
|           0|        9956|   -5.560234|   -2.111716|    0.010419|    1.151929|
|           0|        9957|   -5.617019|   -2.111826|    0.010419|    1.151932|
|           0|        9958|   -5.533106|   -2.112107|    0.010419|    1.151935|
|           0|        9959|   -5.630496|   -2.112299|    0.010418|    1.151938|
|           0|        9960|   -5.565455|   -2.112483|    0.010418|    1.151940|
|           0|        9961|   -5.560336|   -2.112770|    0.010418|    1.151943|
|           0|        9962|   -5.619868|   -2.112872|    0.010418|    1.151946|
|           0|        9963|   -5.533265|   -2.113158|    0.010418|    1.151948|
|           0|        9964|   -5.629308|   -2.113347|    0.010417|    1.151951|
|           0|        9965|   -5.565740|   -2.113536|    0.010417|    1.151954|
|           0|        9966|   -5.560073|   -2.113821|    0.010417|    1.151957|
|           0|        9967|   -5.622906|   -2.113913|    0.010417|    1.151959|
|           0|        9968|   -5.534660|   -2.114203|    0.010417|    1.151962|
|           0|        9969|   -5.628708|   -2.114388|    0.010417|    1.151965|
|           0|        9970|   -5.565315|   -2.114580|    0.010418|    1.151967|
|           0|        9971|   -5.562777|   -2.114863|    0.010418|    1.151970|
|           0|        9972|   -5.619069|   -2.114954|    0.010418|    1.151973|
|           0|        9973|   -5.539459|   -2.115239|    0.010418|    1.151976|
|           0|        9974|   -5.629099|   -2.115422|    0.010418|    1.151978|
|           0|        9975|   -5.563971|   -2.115625|    0.010418|    1.151981|
|           0|        9976|   -5.569685|   -2.115896|    0.010417|    1.151984|
|           0|        9977|   -5.611158|   -2.115995|    0.010417|    1.151987|
|           0|        9978|   -5.545195|   -2.116278|    0.010417|    1.151989|
|           0|        9979|   -5.626262|   -2.116459|    0.010417|    1.151992|
|           0|        9980|   -5.563806|   -2.116668|    0.010416|    1.151995|
|           0|        9981|   -5.575193|   -2.116930|    0.010416|    1.151997|
|           0|        9982|   -5.606267|   -2.117038|    0.010415|    1.152000|
|           0|        9983|   -5.549433|   -2.117322|    0.010415|    1.152003|
|           0|        9984|   -5.625466|   -2.117504|    0.010414|    1.152006|
|           0|        9985|   -5.567065|   -2.117714|    0.010414|    1.152008|
|           0|        9986|   -5.579115|   -2.117972|    0.010413|    1.152011|
|           0|        9987|   -5.605384|   -2.118087|    0.010413|    1.152014|
|           0|        9988|   -5.551876|   -2.118365|    0.010413|    1.152016|
|           0|        9989|   -5.624450|   -2.118550|    0.010412|    1.152019|
|           0|        9990|   -5.570139|   -2.118760|    0.010412|    1.152022|
|           0|        9991|   -5.582571|   -2.119014|    0.010412|    1.152025|
|           0|        9992|   -5.606394|   -2.119138|    0.010412|    1.152027|
|           0|        9993|   -5.552580|   -2.119416|    0.010412|    1.152030|
|           0|        9994|   -5.622467|   -2.119596|    0.010412|    1.152033|
|           0|        9995|   -5.569023|   -2.119806|    0.010413|    1.152036|
|           0|        9996|   -5.583798|   -2.120053|    0.010413|    1.152038|
|           0|        9997|   -5.607868|   -2.120181|    0.010413|    1.152041|
|           0|        9998|   -5.550480|   -2.120465|    0.010413|    1.152044|
|           0|        9999|   -5.623830|   -2.120637|    0.010414|    1.152047|

----------------------------- Solver Exit -------------------------------

Maximum number of iterations reached (ITER = 10000) before convergence.
+-----------------------------------------------------------------------+
|      Convergence Field     |     Value    |   Criterion  |  Converged |
+-----------------------------------------------------------------------+
|                 relrms[Rho]|      -1.97119|         < -15|          No|
+-----------------------------------------------------------------------+
-------------------------------------------------------------------------
+-----------------------------------------------------------------------+
|        File Writing Summary       |              Filename             |
+-----------------------------------------------------------------------+
|SU2 binary restart                 |restart_flow.dat                   |
|SU2 ASCII restart                  |restart_flow.csv                   |
|Paraview                           |flow.vtu                           |
|Paraview surface                   |surface_flow.vtu                   |
+-----------------------------------------------------------------------+

------------------------- Solver Postprocessing -------------------------
Deleted CNumerics container.
Deleted CIntegration container.
Deleted CSolver container.
Deleted CIteration container.
Deleted CInterface container.
Deleted CGeometry container.
Deleted CFreeFormDefBox class.
Deleted CSurfaceMovement class.
Deleted CVolumetricMovement class.
Deleted CConfig container.
Deleted nInst container.
Deleted COutput class.
-------------------------------------------------------------------------

------------------------- Exit Success (SU2_CFD) ------------------------

